<?xml version="1.0" encoding="UTF-8"?>

<!-- generated on 2024-09-30 18:59:51 by Eclipse SUMO netconvert Version 1.18.0
<configuration xmlns:xsi="http://www.w3.org/2001/XMLSchema-instance" xsi:noNamespaceSchemaLocation="http://sumo.dlr.de/xsd/netconvertConfiguration.xsd">

    <input>
        <node-files value="nod.xml"/>
        <edge-files value="edge_xmls/00715.xml"/>
    </input>

    <output>
        <output-file value="networks/00715.net.xml"/>
    </output>

</configuration>
-->

<net version="1.16" junctionCornerDetail="5" limitTurnSpeed="5.50" xmlns:xsi="http://www.w3.org/2001/XMLSchema-instance" xsi:noNamespaceSchemaLocation="http://sumo.dlr.de/xsd/net_file.xsd">

    <location netOffset="-682.00,4368.00" convBoundary="0.00,0.00,2498.00,3881.00" origBoundary="682.00,-4368.00,3180.00,-487.00" projParameter="!"/>

    <edge id=":antrim_0" function="internal">
        <lane id=":antrim_0_0" index="0" speed="10.00" length="33.10" shape="2286.82,3448.35 2287.47,3463.06 2288.76,3473.07 2290.69,3478.37 2293.27,3478.96"/>
    </edge>
    <edge id=":antrim_1" function="internal">
        <lane id=":antrim_1_0" index="0" speed="10.00" length="52.63" shape="2286.82,3448.35 2286.21,3465.27 2282.91,3478.07 2275.77,3485.53 2263.64,3486.39"/>
    </edge>
    <edge id=":antrim_2" function="internal">
        <lane id=":antrim_2_0" index="0" speed="10.00" length="55.17" shape="2286.82,3448.35 2285.30,3464.70 2279.78,3476.14 2269.88,3481.37 2255.20,3479.07"/>
    </edge>
    <edge id=":antrim_3" function="internal">
        <lane id=":antrim_3_0" index="0" speed="10.00" length="51.77" shape="2286.82,3448.35 2285.13,3463.63 2279.46,3474.40 2269.94,3479.00 2256.69,3475.74"/>
    </edge>
    <edge id=":antrim_4" function="internal">
        <lane id=":antrim_4_0" index="0" speed="10.00" length="48.79" shape="2286.82,3448.35 2283.35,3460.12 2274.24,3464.95 2262.37,3463.20 2250.60,3455.23"/>
    </edge>
    <edge id=":antrim_5" function="internal">
        <lane id=":antrim_5_0" index="0" speed="9.88" length="37.22" shape="2286.82,3448.35 2282.46,3453.78 2272.28,3456.55 2260.98,3456.39 2253.29,3453.01"/>
    </edge>
    <edge id=":antrim_6" function="internal">
        <lane id=":antrim_6_0" index="0" speed="9.64" length="35.90" shape="2286.82,3448.35 2282.65,3453.66 2272.88,3456.16 2262.04,3455.69 2254.66,3452.09"/>
    </edge>
    <edge id=":antrim_7" function="internal">
        <lane id=":antrim_7_0" index="0" speed="9.63" length="35.84" shape="2286.82,3448.35 2282.65,3453.66 2272.91,3456.14 2262.09,3455.66 2254.73,3452.04"/>
    </edge>
    <edge id=":antrim_8" function="internal">
        <lane id=":antrim_8_0" index="0" speed="9.82" length="38.33" shape="2286.82,3448.35 2283.84,3457.53 2276.30,3461.38 2267.01,3459.84 2258.77,3452.87"/>
    </edge>
    <edge id=":antrim_9" function="internal">
        <lane id=":antrim_9_0" index="0" speed="6.63" length="18.68" shape="2286.82,3448.35 2284.61,3451.00 2279.54,3451.27 2274.15,3449.58 2270.99,3446.39"/>
    </edge>
    <edge id=":antrim_10" function="internal">
        <lane id=":antrim_10_0" index="0" speed="6.40" length="17.42" shape="2286.82,3448.35 2284.76,3450.72 2280.03,3450.73 2275.03,3448.91 2272.16,3445.80"/>
    </edge>
    <edge id=":antrim_11" function="internal">
        <lane id=":antrim_11_0" index="0" speed="5.53" length="13.07" shape="2286.82,3448.35 2285.56,3450.90 2282.62,3451.07 2279.52,3449.29 2277.75,3446.03"/>
    </edge>
    <edge id=":antrim_12" function="internal">
        <lane id=":antrim_12_0" index="0" speed="4.84" length="9.67" shape="2286.82,3448.35 2285.84,3450.40 2283.58,3450.91 2281.23,3450.00 2279.98,3447.77"/>
    </edge>
    <edge id=":antrim_13" function="internal">
        <lane id=":antrim_13_0" index="0" speed="6.53" length="18.53" shape="2286.82,3448.35 2285.11,3451.96 2281.06,3452.13 2276.67,3449.55 2273.91,3444.92"/>
    </edge>
    <edge id=":antrim_14" function="internal">
        <lane id=":antrim_14_0" index="0" speed="4.08" length="6.37" shape="2286.82,3448.35 2285.79,3450.02 2284.71,3450.60 2283.61,3450.09 2282.46,3448.49"/>
    </edge>
    <edge id=":antrim_15" function="internal">
        <lane id=":antrim_15_0" index="0" speed="10.00" length="34.11" shape="2283.27,3448.46 2285.27,3463.25 2287.61,3473.26 2290.27,3478.49 2293.27,3478.96"/>
    </edge>
    <edge id=":antrim_16" function="internal">
        <lane id=":antrim_16_0" index="0" speed="10.00" length="51.41" shape="2283.27,3448.46 2284.10,3464.88 2281.96,3477.71 2275.56,3485.39 2263.64,3486.39"/>
    </edge>
    <edge id=":antrim_17" function="internal">
        <lane id=":antrim_17_0" index="0" speed="10.00" length="52.61" shape="2283.27,3448.46 2282.96,3464.07 2278.25,3475.43 2269.04,3480.95 2255.20,3479.07"/>
    </edge>
    <edge id=":antrim_18" function="internal">
        <lane id=":antrim_18_0" index="0" speed="10.00" length="48.98" shape="2283.27,3448.46 2282.71,3462.96 2277.88,3473.61 2269.10,3478.51 2256.69,3475.74"/>
    </edge>
    <edge id=":antrim_19" function="internal">
        <lane id=":antrim_19_0" index="0" speed="10.00" length="44.57" shape="2283.27,3448.46 2280.82,3459.15 2272.55,3463.72 2261.46,3462.34 2250.60,3455.23"/>
    </edge>
    <edge id=":antrim_20" function="internal">
        <lane id=":antrim_20_0" index="0" speed="9.30" length="34.08" shape="2283.27,3448.46 2279.80,3453.85 2270.79,3456.59 2260.54,3456.40 2253.29,3453.01"/>
    </edge>
    <edge id=":antrim_21" function="internal">
        <lane id=":antrim_21_0" index="0" speed="9.07" length="32.78" shape="2283.27,3448.46 2279.98,3453.74 2271.39,3456.20 2261.60,3455.70 2254.66,3452.09"/>
    </edge>
    <edge id=":antrim_22" function="internal">
        <lane id=":antrim_22_0" index="0" speed="9.06" length="32.72" shape="2283.27,3448.46 2279.99,3453.73 2271.42,3456.18 2261.65,3455.67 2254.73,3452.04"/>
    </edge>
    <edge id=":antrim_23" function="internal">
        <lane id=":antrim_23_0" index="0" speed="8.45" length="28.91" shape="2283.27,3448.46 2280.48,3453.59 2273.14,3456.31 2264.73,3456.21 2258.77,3452.87"/>
    </edge>
    <edge id=":antrim_24" function="internal">
        <lane id=":antrim_24_0" index="0" speed="5.86" length="14.58" shape="2283.27,3448.46 2281.71,3450.44 2277.76,3450.46 2273.49,3448.96 2270.99,3446.39"/>
    </edge>
    <edge id=":antrim_25" function="internal">
        <lane id=":antrim_25_0" index="0" speed="5.61" length="13.36" shape="2283.27,3448.46 2281.85,3450.16 2278.25,3449.93 2274.39,3448.29 2272.16,3445.80"/>
    </edge>
    <edge id=":antrim_26" function="internal">
        <lane id=":antrim_26_0" index="0" speed="4.01" length="6.03" shape="2283.27,3448.46 2277.75,3446.03"/>
    </edge>
    <edge id=":antrim_27" function="internal">
        <lane id=":antrim_27_0" index="0" speed="5.66" length="13.86" shape="2283.27,3448.46 2282.24,3451.00 2279.29,3450.79 2276.00,3448.53 2273.91,3444.92"/>
    </edge>
    <edge id=":antrim_28" function="internal">
        <lane id=":antrim_28_0" index="0" speed="5.58" length="13.71" shape="2283.27,3448.46 2282.67,3443.35 2282.34,3441.65 2282.27,3443.37 2282.46,3448.49"/>
    </edge>
    <edge id=":antrim_29" function="internal">
        <lane id=":antrim_29_0" index="0" speed="3.71" length="4.91" shape="2283.27,3448.46 2282.19,3449.52 2281.28,3449.76 2280.54,3449.18 2279.98,3447.77"/>
    </edge>
    <edge id=":antrim_30" function="internal">
        <lane id=":antrim_30_0" index="0" speed="5.78" length="14.57" shape="2280.70,3448.55 2281.73,3453.92 2282.37,3455.70 2282.61,3453.89 2282.46,3448.49"/>
    </edge>
    <edge id=":antrim_31" function="internal">
        <lane id=":antrim_31_0" index="0" speed="10.00" length="35.00" shape="2280.70,3448.55 2283.70,3463.38 2286.79,3473.39 2289.98,3478.58 2293.27,3478.96"/>
    </edge>
    <edge id=":antrim_32" function="internal">
        <lane id=":antrim_32_0" index="0" speed="10.00" length="50.65" shape="2280.70,3448.55 2282.53,3464.60 2281.23,3477.44 2275.40,3485.30 2263.64,3486.39"/>
    </edge>
    <edge id=":antrim_33" function="internal">
        <lane id=":antrim_33_0" index="0" speed="10.00" length="50.81" shape="2280.70,3448.55 2281.20,3463.61 2277.10,3474.91 2268.43,3480.66 2255.20,3479.07"/>
    </edge>
    <edge id=":antrim_34" function="internal">
        <lane id=":antrim_34_0" index="0" speed="10.00" length="47.02" shape="2280.70,3448.55 2280.90,3462.48 2276.69,3473.05 2268.48,3478.17 2256.69,3475.74"/>
    </edge>
    <edge id=":antrim_35" function="internal">
        <lane id=":antrim_35_0" index="0" speed="10.00" length="41.46" shape="2280.70,3448.55 2278.90,3458.44 2271.23,3462.81 2260.77,3461.72 2250.60,3455.23"/>
    </edge>
    <edge id=":antrim_36" function="internal">
        <lane id=":antrim_36_0" index="0" speed="8.90" length="31.85" shape="2280.70,3448.55 2277.86,3453.90 2269.72,3456.61 2260.21,3456.41 2253.29,3453.01"/>
    </edge>
    <edge id=":antrim_37" function="internal">
        <lane id=":antrim_37_0" index="0" speed="8.65" length="30.46" shape="2280.70,3448.55 2278.02,3453.71 2270.28,3456.13 2261.23,3455.64 2254.66,3452.09"/>
    </edge>
    <edge id=":antrim_38" function="internal">
        <lane id=":antrim_38_0" index="0" speed="8.64" length="30.38" shape="2280.70,3448.55 2278.03,3453.70 2270.30,3456.10 2261.28,3455.60 2254.73,3452.04"/>
    </edge>
    <edge id=":antrim_39" function="internal">
        <lane id=":antrim_39_0" index="0" speed="7.94" length="26.03" shape="2280.70,3448.55 2278.41,3453.18 2271.81,3455.76 2264.18,3455.81 2258.77,3452.87"/>
    </edge>
    <edge id=":antrim_40" function="internal">
        <lane id=":antrim_40_0" index="0" speed="5.67" length="13.83" shape="2280.70,3448.55 2279.81,3451.26 2276.81,3451.49 2273.33,3449.72 2270.99,3446.39"/>
    </edge>
    <edge id=":antrim_41" function="internal">
        <lane id=":antrim_41_0" index="0" speed="5.01" length="10.45" shape="2280.70,3448.55 2279.69,3449.77 2276.92,3449.36 2273.91,3447.86 2272.16,3445.80"/>
    </edge>
    <edge id=":antrim_42" function="internal">
        <lane id=":antrim_42_0" index="0" speed="4.83" length="9.68" shape="2280.70,3448.55 2280.02,3444.77 2279.67,3443.38 2279.66,3444.38 2279.98,3447.77"/>
    </edge>
    <edge id=":antrim_43" function="internal">
        <lane id=":antrim_43_0" index="0" speed="4.66" length="8.88" shape="2280.70,3448.55 2279.91,3449.40 2277.69,3448.62 2275.28,3446.90 2273.91,3444.92"/>
    </edge>
    <edge id=":antrim_44" function="internal">
        <lane id=":antrim_44_0" index="0" speed="3.91" length="5.67" shape="2280.70,3448.55 2279.02,3449.03 2277.96,3448.76 2277.54,3447.76 2277.75,3446.03"/>
    </edge>
    <edge id=":antrim_45" function="internal">
        <lane id=":antrim_45_0" index="0" speed="3.18" length="2.92" shape="2277.83,3447.57 2278.00,3448.23 2278.05,3448.19 2277.96,3447.45 2277.75,3446.03"/>
    </edge>
    <edge id=":antrim_46" function="internal">
        <lane id=":antrim_46_0" index="0" speed="6.15" length="16.71" shape="2277.83,3447.57 2279.42,3453.73 2280.31,3455.82 2280.49,3453.83 2279.98,3447.77"/>
    </edge>
    <edge id=":antrim_47" function="internal">
        <lane id=":antrim_47_0" index="0" speed="4.84" length="9.69" shape="2277.83,3447.57 2277.30,3449.49 2275.17,3449.77 2272.67,3448.65 2270.99,3446.39"/>
    </edge>
    <edge id=":antrim_48" function="internal">
        <lane id=":antrim_48_0" index="0" speed="3.99" length="5.94" shape="2277.83,3447.57 2272.16,3445.80"/>
    </edge>
    <edge id=":antrim_49" function="internal">
        <lane id=":antrim_49_0" index="0" speed="7.39" length="24.60" shape="2277.83,3447.57 2280.27,3456.73 2281.86,3459.94 2282.59,3457.19 2282.46,3448.49"/>
    </edge>
    <edge id=":antrim_50" function="internal">
        <lane id=":antrim_50_0" index="0" speed="10.00" length="37.10" shape="2277.83,3447.57 2281.96,3462.90 2285.91,3473.24 2289.68,3478.59 2293.27,3478.96"/>
    </edge>
    <edge id=":antrim_51" function="internal">
        <lane id=":antrim_51_0" index="0" speed="10.00" length="50.91" shape="2277.83,3447.57 2280.71,3463.61 2280.37,3476.81 2275.21,3485.10 2263.64,3486.39"/>
    </edge>
    <edge id=":antrim_52" function="internal">
        <lane id=":antrim_52_0" index="0" speed="10.00" length="49.94" shape="2277.83,3447.57 2279.22,3462.41 2275.94,3474.04 2267.94,3480.31 2255.20,3479.07"/>
    </edge>
    <edge id=":antrim_53" function="internal">
        <lane id=":antrim_53_0" index="0" speed="10.00" length="45.98" shape="2277.83,3447.57 2278.87,3461.26 2275.47,3472.15 2267.96,3477.78 2256.69,3475.74"/>
    </edge>
    <edge id=":antrim_54" function="internal">
        <lane id=":antrim_54_0" index="0" speed="9.72" length="38.29" shape="2277.83,3447.57 2276.65,3456.80 2269.70,3461.34 2260.01,3460.91 2250.60,3455.23"/>
    </edge>
    <edge id=":antrim_55" function="internal">
        <lane id=":antrim_55_0" index="0" speed="8.43" length="29.20" shape="2277.83,3447.57 2275.57,3452.76 2268.32,3455.74 2259.68,3456.00 2253.29,3453.01"/>
    </edge>
    <edge id=":antrim_56" function="internal">
        <lane id=":antrim_56_0" index="0" speed="8.14" length="27.46" shape="2277.83,3447.57 2275.66,3452.38 2268.76,3455.01 2260.60,3455.06 2254.66,3452.09"/>
    </edge>
    <edge id=":antrim_57" function="internal">
        <lane id=":antrim_57_0" index="0" speed="8.13" length="27.37" shape="2277.83,3447.57 2275.67,3452.36 2268.78,3454.98 2260.64,3455.01 2254.73,3452.04"/>
    </edge>
    <edge id=":antrim_58" function="internal">
        <lane id=":antrim_58_0" index="0" speed="7.43" length="23.12" shape="2277.83,3447.57 2276.02,3451.87 2270.29,3454.65 2263.56,3455.23 2258.77,3452.87"/>
    </edge>
    <edge id=":antrim_59" function="internal">
        <lane id=":antrim_59_0" index="0" speed="4.20" length="6.91" shape="2277.83,3447.57 2275.85,3448.38 2274.54,3448.21 2273.89,3447.05 2273.91,3444.92"/>
    </edge>
    <edge id=":antrim_60" function="internal">
        <lane id=":antrim_60_0" index="0" speed="6.34" length="17.94" shape="2275.51,3445.89 2277.49,3452.43 2278.53,3454.64 2278.61,3452.50 2277.75,3446.03"/>
    </edge>
    <edge id=":antrim_61" function="internal">
        <lane id=":antrim_61_0" index="0" speed="7.34" length="24.38" shape="2275.51,3445.89 2278.37,3455.16 2280.07,3458.56 2280.60,3456.10 2279.98,3447.77"/>
    </edge>
    <edge id=":antrim_62" function="internal">
        <lane id=":antrim_62_0" index="0" speed="3.63" length="4.55" shape="2275.51,3445.89 2270.99,3446.39"/>
    </edge>
    <edge id=":antrim_63" function="internal">
        <lane id=":antrim_63_0" index="0" speed="8.02" length="30.94" shape="2275.51,3445.89 2272.19,3434.43 2270.82,3430.45 2271.40,3433.95 2273.91,3444.92"/>
    </edge>
    <edge id=":antrim_64" function="internal">
        <lane id=":antrim_64_0" index="0" speed="8.07" length="29.25" shape="2275.51,3445.89 2279.03,3456.99 2281.36,3461.13 2282.51,3458.29 2282.46,3448.49"/>
    </edge>
    <edge id=":antrim_65" function="internal">
        <lane id=":antrim_65_0" index="0" speed="10.00" length="43.06" shape="2275.51,3445.89 2281.02,3463.37 2286.09,3475.16 2290.73,3481.27 2294.93,3481.69"/>
    </edge>
    <edge id=":antrim_66" function="internal">
        <lane id=":antrim_66_0" index="0" speed="10.00" length="52.04" shape="2275.51,3445.89 2279.22,3462.29 2279.65,3476.06 2275.04,3484.88 2263.64,3486.39"/>
    </edge>
    <edge id=":antrim_67" function="internal">
        <lane id=":antrim_67_0" index="0" speed="10.00" length="50.34" shape="2275.51,3445.89 2277.65,3460.92 2275.14,3473.14 2267.73,3480.03 2255.20,3479.07"/>
    </edge>
    <edge id=":antrim_68" function="internal">
        <lane id=":antrim_68_0" index="0" speed="10.00" length="46.27" shape="2275.51,3445.89 2277.26,3459.77 2274.63,3471.25 2267.73,3477.51 2256.69,3475.74"/>
    </edge>
    <edge id=":antrim_69" function="internal">
        <lane id=":antrim_69_0" index="0" speed="9.39" length="36.20" shape="2275.51,3445.89 2274.76,3454.83 2268.44,3459.85 2259.42,3460.22 2250.60,3455.23"/>
    </edge>
    <edge id=":antrim_70" function="internal">
        <lane id=":antrim_70_0" index="0" speed="8.09" length="27.20" shape="2275.51,3445.89 2273.63,3450.99 2267.08,3454.48 2259.18,3455.45 2253.29,3453.01"/>
    </edge>
    <edge id=":antrim_71" function="internal">
        <lane id=":antrim_71_0" index="0" speed="7.79" length="25.39" shape="2275.51,3445.89 2273.71,3450.60 2267.51,3453.73 2260.10,3454.50 2254.66,3452.09"/>
    </edge>
    <edge id=":antrim_72" function="internal">
        <lane id=":antrim_72_0" index="0" speed="7.77" length="25.30" shape="2275.51,3445.89 2273.72,3450.58 2267.53,3453.70 2260.14,3454.45 2254.73,3452.04"/>
    </edge>
    <edge id=":antrim_73" function="internal">
        <lane id=":antrim_73_0" index="0" speed="7.10" length="21.26" shape="2275.51,3445.89 2274.07,3450.13 2269.05,3453.42 2263.08,3454.69 2258.77,3452.87"/>
    </edge>
    <edge id=":antrim_74" function="internal">
        <lane id=":antrim_74_0" index="0" speed="3.71" length="4.89" shape="2275.51,3445.89 2274.64,3447.12 2273.79,3447.52 2272.96,3447.08 2272.16,3445.80"/>
    </edge>
    <edge id=":antrim_75" function="internal">
        <lane id=":antrim_75_0" index="0" speed="8.94" length="35.56" shape="2262.18,3450.80 2269.86,3461.11 2273.89,3463.80 2274.27,3458.90 2270.99,3446.39"/>
    </edge>
    <edge id=":antrim_76" function="internal">
        <lane id=":antrim_76_0" index="0" speed="9.15" length="36.97" shape="2262.18,3450.80 2270.15,3461.38 2274.46,3464.07 2275.13,3458.88 2272.16,3445.80"/>
    </edge>
    <edge id=":antrim_77" function="internal">
        <lane id=":antrim_77_0" index="0" speed="9.79" length="40.60" shape="2262.18,3450.80 2271.09,3462.27 2276.65,3465.29 2278.87,3459.88 2277.75,3446.03"/>
    </edge>
    <edge id=":antrim_78" function="internal">
        <lane id=":antrim_78_0" index="0" speed="9.92" length="40.92" shape="2262.18,3450.80 2271.37,3462.60 2277.40,3466.02 2280.27,3461.08 2279.98,3447.77"/>
    </edge>
    <edge id=":antrim_79" function="internal">
        <lane id=":antrim_79_0" index="0" speed="9.45" length="38.88" shape="2262.18,3450.80 2270.50,3461.69 2275.23,3464.34 2276.37,3458.75 2273.91,3444.92"/>
    </edge>
    <edge id=":antrim_80" function="internal">
        <lane id=":antrim_80_0" index="0" speed="10.00" length="42.07" shape="2262.18,3450.80 2271.68,3462.87 2278.23,3466.50 2281.82,3461.71 2282.46,3448.49"/>
    </edge>
    <edge id=":antrim_81" function="internal">
        <lane id=":antrim_81_0" index="0" speed="10.00" length="46.91" shape="2262.18,3450.80 2273.34,3466.25 2282.52,3476.54 2289.71,3481.69 2294.93,3481.69"/>
    </edge>
    <edge id=":antrim_82" function="internal">
        <lane id=":antrim_82_0" index="0" speed="10.00" length="46.54" shape="2262.18,3450.80 2269.81,3463.80 2274.35,3476.13 2273.17,3484.69 2263.64,3486.39"/>
    </edge>
    <edge id=":antrim_83" function="internal">
        <lane id=":antrim_83_0" index="0" speed="9.95" length="38.94" shape="2262.18,3450.80 2267.03,3461.68 2267.76,3472.11 2263.95,3478.95 2255.20,3479.07"/>
    </edge>
    <edge id=":antrim_84" function="internal">
        <lane id=":antrim_84_0" index="0" speed="9.17" length="34.42" shape="2262.18,3450.80 2266.44,3460.57 2267.14,3470.11 2263.98,3476.23 2256.69,3475.74"/>
    </edge>
    <edge id=":antrim_85" function="internal">
        <lane id=":antrim_85_0" index="0" speed="6.29" length="17.27" shape="2262.18,3450.80 2262.67,3454.59 2259.64,3457.00 2254.99,3457.41 2250.60,3455.23"/>
    </edge>
    <edge id=":antrim_86" function="internal">
        <lane id=":antrim_86_0" index="0" speed="5.46" length="12.78" shape="2262.18,3450.80 2262.46,3453.48 2260.04,3454.95 2256.47,3454.90 2253.29,3453.01"/>
    </edge>
    <edge id=":antrim_87" function="internal">
        <lane id=":antrim_87_0" index="0" speed="4.68" length="8.93" shape="2262.18,3450.80 2261.83,3452.17 2259.55,3452.98 2256.70,3453.02 2254.66,3452.09"/>
    </edge>
    <edge id=":antrim_88" function="internal">
        <lane id=":antrim_88_0" index="0" speed="4.66" length="8.84" shape="2262.18,3450.80 2261.83,3452.16 2259.57,3452.95 2256.75,3452.98 2254.73,3452.04"/>
    </edge>
    <edge id=":antrim_89" function="internal">
        <lane id=":antrim_89_0" index="0" speed="3.95" length="5.83" shape="2262.18,3450.80 2262.10,3452.60 2261.51,3453.54 2260.40,3453.63 2258.77,3452.87"/>
    </edge>
    <edge id=":antrim_90" function="internal">
        <lane id=":antrim_90_0" index="0" speed="3.60" length="4.47" shape="2259.16,3452.61 2254.73,3452.04"/>
    </edge>
    <edge id=":antrim_91" function="internal">
        <lane id=":antrim_91_0" index="0" speed="4.43" length="7.79" shape="2259.16,3452.61 2257.32,3450.34 2256.64,3449.63 2257.13,3450.47 2258.77,3452.87"/>
    </edge>
    <edge id=":antrim_92" function="internal">
        <lane id=":antrim_92_0" index="0" speed="9.47" length="38.98" shape="2259.16,3452.61 2268.43,3462.97 2273.49,3465.38 2274.34,3459.85 2270.99,3446.39"/>
    </edge>
    <edge id=":antrim_93" function="internal">
        <lane id=":antrim_93_0" index="0" speed="9.65" length="40.11" shape="2259.16,3452.61 2268.65,3463.11 2273.98,3465.48 2275.15,3459.71 2272.16,3445.80"/>
    </edge>
    <edge id=":antrim_94" function="internal">
        <lane id=":antrim_94_0" index="0" speed="10.00" length="43.08" shape="2259.16,3452.61 2269.45,3463.70 2275.98,3466.30 2278.75,3460.41 2277.75,3446.03"/>
    </edge>
    <edge id=":antrim_95" function="internal">
        <lane id=":antrim_95_0" index="0" speed="10.00" length="43.25" shape="2259.16,3452.61 2269.71,3463.96 2276.70,3466.94 2280.12,3461.54 2279.98,3447.77"/>
    </edge>
    <edge id=":antrim_96" function="internal">
        <lane id=":antrim_96_0" index="0" speed="9.92" length="41.71" shape="2259.16,3452.61 2268.94,3463.29 2274.66,3465.57 2276.32,3459.45 2273.91,3444.92"/>
    </edge>
    <edge id=":antrim_97" function="internal">
        <lane id=":antrim_97_0" index="0" speed="10.00" length="44.30" shape="2259.16,3452.61 2269.99,3464.17 2277.49,3467.33 2281.65,3462.11 2282.46,3448.49"/>
    </edge>
    <edge id=":antrim_98" function="internal">
        <lane id=":antrim_98_0" index="0" speed="10.00" length="47.87" shape="2259.16,3452.61 2271.60,3467.29 2281.71,3477.02 2289.49,3481.83 2294.93,3481.69"/>
    </edge>
    <edge id=":antrim_99" function="internal">
        <lane id=":antrim_99_0" index="0" speed="10.00" length="44.79" shape="2259.16,3452.61 2267.44,3464.64 2272.79,3476.38 2272.44,3484.69 2263.64,3486.39"/>
    </edge>
    <edge id=":antrim_100" function="internal">
        <lane id=":antrim_100_0" index="0" speed="9.43" length="35.99" shape="2259.16,3452.61 2264.39,3462.39 2265.86,3472.18 2262.99,3478.79 2255.20,3479.07"/>
    </edge>
    <edge id=":antrim_101" function="internal">
        <lane id=":antrim_101_0" index="0" speed="8.66" length="31.47" shape="2259.16,3452.61 2263.78,3461.32 2265.24,3470.18 2263.05,3476.04 2256.69,3475.74"/>
    </edge>
    <edge id=":antrim_102" function="internal">
        <lane id=":antrim_102_0" index="0" speed="5.40" length="12.48" shape="2259.16,3452.61 2259.62,3455.16 2257.35,3456.71 2253.84,3456.86 2250.60,3455.23"/>
    </edge>
    <edge id=":antrim_103" function="internal">
        <lane id=":antrim_103_0" index="0" speed="3.97" length="5.89" shape="2259.16,3452.61 2253.29,3453.01"/>
    </edge>
    <edge id=":antrim_104" function="internal">
        <lane id=":antrim_104_0" index="0" speed="4.13" length="6.61" shape="2259.16,3452.61 2257.84,3454.17 2256.65,3454.60 2255.59,3453.91 2254.66,3452.09"/>
    </edge>
    <edge id=":antrim_105" function="internal">
        <lane id=":antrim_105_0" index="0" speed="6.11" length="16.64" shape="2251.91,3453.94 2256.50,3458.23 2258.26,3459.50 2257.19,3457.76 2253.29,3453.01"/>
    </edge>
    <edge id=":antrim_106" function="internal">
        <lane id=":antrim_106_0" index="0" speed="7.37" length="24.90" shape="2251.91,3453.94 2258.81,3460.31 2261.57,3462.12 2260.18,3459.38 2254.66,3452.09"/>
    </edge>
    <edge id=":antrim_107" function="internal">
        <lane id=":antrim_107_0" index="0" speed="7.41" length="25.19" shape="2251.91,3453.94 2258.89,3460.38 2261.69,3462.21 2260.30,3459.43 2254.73,3452.04"/>
    </edge>
    <edge id=":antrim_108" function="internal">
        <lane id=":antrim_108_0" index="0" speed="8.26" length="31.20" shape="2251.91,3453.94 2261.09,3462.31 2265.29,3464.92 2264.52,3461.77 2258.77,3452.87"/>
    </edge>
    <edge id=":antrim_109" function="internal">
        <lane id=":antrim_109_0" index="0" speed="10.00" length="45.47" shape="2251.91,3453.94 2264.61,3464.56 2272.03,3466.84 2274.15,3460.78 2270.99,3446.39"/>
    </edge>
    <edge id=":antrim_110" function="internal">
        <lane id=":antrim_110_0" index="0" speed="10.00" length="46.43" shape="2251.91,3453.94 2264.78,3464.61 2272.45,3466.81 2274.90,3460.54 2272.16,3445.80"/>
    </edge>
    <edge id=":antrim_111" function="internal">
        <lane id=":antrim_111_0" index="0" speed="10.00" length="49.04" shape="2251.91,3453.94 2265.44,3464.93 2274.26,3467.27 2278.37,3460.97 2277.75,3446.03"/>
    </edge>
    <edge id=":antrim_112" function="internal">
        <lane id=":antrim_112_0" index="0" speed="10.00" length="49.16" shape="2251.91,3453.94 2265.67,3465.13 2274.94,3467.83 2279.71,3462.04 2279.98,3447.77"/>
    </edge>
    <edge id=":antrim_113" function="internal">
        <lane id=":antrim_113_0" index="0" speed="10.00" length="47.85" shape="2251.91,3453.94 2265.01,3464.68 2273.05,3466.75 2276.01,3460.17 2273.91,3444.92"/>
    </edge>
    <edge id=":antrim_114" function="internal">
        <lane id=":antrim_114_0" index="0" speed="10.00" length="50.17" shape="2251.91,3453.94 2265.93,3465.27 2275.70,3468.14 2281.21,3462.54 2282.46,3448.49"/>
    </edge>
    <edge id=":antrim_115" function="internal">
        <lane id=":antrim_115_0" index="0" speed="10.00" length="52.68" shape="2251.91,3453.94 2267.46,3468.07 2279.82,3477.40 2288.98,3481.94 2294.93,3481.69"/>
    </edge>
    <edge id=":antrim_116" function="internal">
        <lane id=":antrim_116_0" index="0" speed="10.00" length="45.60" shape="2251.91,3453.94 2262.21,3465.13 2270.01,3476.49 2271.69,3484.70 2263.64,3486.39"/>
    </edge>
    <edge id=":antrim_117" function="internal">
        <lane id=":antrim_117_0" index="0" speed="8.96" length="34.14" shape="2251.91,3453.94 2258.55,3462.69 2262.30,3472.04 2261.67,3478.62 2255.20,3479.07"/>
    </edge>
    <edge id=":antrim_118" function="internal">
        <lane id=":antrim_118_0" index="0" speed="8.26" length="30.04" shape="2251.91,3453.94 2257.97,3461.77 2261.78,3470.19 2261.84,3475.93 2256.69,3475.74"/>
    </edge>
    <edge id=":antrim_119" function="internal">
        <lane id=":antrim_119_0" index="0" speed="3.09" length="2.67" shape="2251.91,3453.94 2252.06,3454.76 2251.90,3455.24 2251.41,3455.40 2250.60,3455.23"/>
    </edge>
    <edge id=":athlone_0" function="internal">
        <lane id=":athlone_0_0" index="0" speed="10.00" length="43.78" shape="1256.93,2012.89 1255.59,1992.49 1253.91,1978.84 1251.87,1971.94 1249.48,1971.80"/>
    </edge>
    <edge id=":athlone_1" function="internal">
        <lane id=":athlone_1_0" index="0" speed="10.00" length="48.53" shape="1256.93,2012.89 1255.40,1991.54 1253.23,1976.84 1250.42,1968.79 1246.95,1967.38"/>
    </edge>
    <edge id=":athlone_2" function="internal">
        <lane id=":athlone_2_0" index="0" speed="10.00" length="58.28" shape="1256.93,2012.89 1255.05,1990.50 1251.87,1973.99 1247.39,1963.37 1241.62,1958.63"/>
    </edge>
    <edge id=":athlone_3" function="internal">
        <lane id=":athlone_3_0" index="0" speed="10.00" length="65.89" shape="1256.93,2012.89 1255.15,2001.26 1251.22,1980.25 1246.73,1959.47 1243.26,1948.51"/>
    </edge>
    <edge id=":athlone_4" function="internal">
        <lane id=":athlone_4_0" index="0" speed="10.00" length="67.48" shape="1256.93,2012.89 1255.54,2000.99 1252.57,1979.36 1249.21,1957.82 1246.69,1946.23"/>
    </edge>
    <edge id=":athlone_5" function="internal">
        <lane id=":athlone_5_0" index="0" speed="10.00" length="43.73" shape="1256.93,2012.89 1259.59,2001.03 1267.10,1993.56 1276.79,1992.18 1286.00,1998.55"/>
    </edge>
    <edge id=":athlone_6" function="internal">
        <lane id=":athlone_6_0" index="0" speed="9.20" length="34.04" shape="1256.93,2012.89 1260.27,2006.03 1268.42,2000.16 1277.58,1997.34 1283.97,1999.63"/>
    </edge>
    <edge id=":athlone_7" function="internal">
        <lane id=":athlone_7_0" index="0" speed="9.82" length="39.43" shape="1256.93,2012.89 1259.45,2002.19 1266.40,1995.38 1275.14,1994.14 1283.00,2000.14"/>
    </edge>
    <edge id=":athlone_8" function="internal">
        <lane id=":athlone_8_0" index="0" speed="9.41" length="36.73" shape="1256.93,2012.89 1259.35,2002.93 1265.95,1996.55 1274.09,1995.40 1281.14,2001.11"/>
    </edge>
    <edge id=":athlone_9" function="internal">
        <lane id=":athlone_9_0" index="0" speed="6.86" length="20.62" shape="1256.93,2012.89 1258.56,2007.35 1262.70,2003.77 1267.32,2003.22 1270.42,2006.76"/>
    </edge>
    <edge id=":athlone_10" function="internal">
        <lane id=":athlone_10_0" index="0" speed="6.10" length="16.00" shape="1256.93,2012.89 1258.62,2009.49 1262.65,2006.75 1266.92,2005.70 1269.36,2007.32"/>
    </edge>
    <edge id=":athlone_11" function="internal">
        <lane id=":athlone_11_0" index="0" speed="10.00" length="42.30" shape="1260.54,2011.97 1256.81,1993.00 1253.72,1979.98 1251.28,1972.92 1249.48,1971.80"/>
    </edge>
    <edge id=":athlone_12" function="internal">
        <lane id=":athlone_12_0" index="0" speed="10.00" length="47.45" shape="1260.54,2011.97 1256.43,1991.53 1252.79,1977.29 1249.64,1969.24 1246.95,1967.38"/>
    </edge>
    <edge id=":athlone_13" function="internal">
        <lane id=":athlone_13_0" index="0" speed="10.00" length="57.64" shape="1260.54,2011.97 1255.85,1989.64 1251.13,1973.30 1246.38,1962.97 1241.62,1958.63"/>
    </edge>