<?xml version="1.0" encoding="UTF-8"?>

<!-- generated on 2024-09-30 19:01:35 by Eclipse SUMO netconvert Version 1.18.0
<configuration xmlns:xsi="http://www.w3.org/2001/XMLSchema-instance" xsi:noNamespaceSchemaLocation="http://sumo.dlr.de/xsd/netconvertConfiguration.xsd">

    <input>
        <node-files value="nod.xml"/>
        <edge-files value="edge_xmls/00746.xml"/>
    </input>

    <output>
        <output-file value="networks/00746.net.xml"/>
    </output>

</configuration>
-->

<net version="1.16" junctionCornerDetail="5" limitTurnSpeed="5.50" xmlns:xsi="http://www.w3.org/2001/XMLSchema-instance" xsi:noNamespaceSchemaLocation="http://sumo.dlr.de/xsd/net_file.xsd">

    <location netOffset="-682.00,4368.00" convBoundary="0.00,0.00,2498.00,3881.00" origBoundary="682.00,-4368.00,3180.00,-487.00" projParameter="!"/>

    <edge id=":antrim_0" function="internal">
        <lane id=":antrim_0_0" index="0" speed="4.17" length="6.53" shape="2283.96,3465.41 2283.54,3463.04 2283.29,3462.28 2283.21,3463.13 2283.28,3465.59"/>
    </edge>
    <edge id=":antrim_1" function="internal">
        <lane id=":antrim_1_0" index="0" speed="5.24" length="11.06" shape="2283.96,3465.41 2284.72,3469.23 2285.40,3470.39 2286.00,3468.89 2286.52,3464.73"/>
    </edge>
    <edge id=":antrim_2" function="internal">
        <lane id=":antrim_2_0" index="0" speed="8.50" length="21.00" shape="2283.96,3465.41 2285.59,3474.46 2287.24,3480.63 2288.91,3483.92 2290.60,3484.33"/>
    </edge>
    <edge id=":antrim_3" function="internal">
        <lane id=":antrim_3_0" index="0" speed="10.00" length="27.28" shape="2283.96,3465.41 2285.32,3476.31 2285.56,3484.34 2284.70,3489.50 2282.72,3491.79"/>
    </edge>
    <edge id=":antrim_4" function="internal">
        <lane id=":antrim_4_0" index="0" speed="10.00" length="38.75" shape="2283.96,3465.41 2280.34,3471.36 2270.44,3475.67 2258.72,3477.73 2249.67,3476.98"/>
    </edge>
    <edge id=":antrim_5" function="internal">
        <lane id=":antrim_5_0" index="0" speed="9.59" length="30.98" shape="2283.96,3465.41 2281.70,3471.43 2274.80,3475.79 2266.18,3477.73 2258.72,3476.48"/>
    </edge>
    <edge id=":antrim_6" function="internal">
        <lane id=":antrim_6_0" index="0" speed="9.01" length="29.69" shape="2283.96,3465.41 2281.68,3471.18 2274.86,3475.15 2266.52,3476.52 2259.67,3474.48"/>
    </edge>
    <edge id=":antrim_7" function="internal">
        <lane id=":antrim_7_0" index="0" speed="7.69" length="22.48" shape="2283.96,3465.41 2282.05,3469.47 2276.54,3471.78 2270.00,3472.03 2264.97,3469.86"/>
    </edge>
    <edge id=":antrim_8" function="internal">
        <lane id=":antrim_8_0" index="0" speed="7.09" length="19.71" shape="2283.96,3465.41 2282.19,3468.77 2277.18,3470.36 2271.35,3470.06 2267.11,3467.77"/>
    </edge>
    <edge id=":antrim_9" function="internal">
        <lane id=":antrim_9_0" index="0" speed="6.41" length="16.60" shape="2283.96,3465.41 2282.38,3467.94 2278.02,3468.62 2273.05,3467.65 2269.67,3465.25"/>
    </edge>
    <edge id=":antrim_10" function="internal">
        <lane id=":antrim_10_0" index="0" speed="6.12" length="15.83" shape="2283.96,3465.41 2283.00,3468.39 2279.74,3468.33 2275.83,3465.98 2272.91,3462.08"/>
    </edge>
    <edge id=":antrim_11" function="internal">
        <lane id=":antrim_11_0" index="0" speed="3.13" length="2.72" shape="2283.60,3465.50 2283.41,3464.52 2283.30,3464.21 2283.25,3464.56 2283.28,3465.59"/>
    </edge>
    <edge id=":antrim_12" function="internal">
        <lane id=":antrim_12_0" index="0" speed="5.42" length="11.89" shape="2283.60,3465.50 2284.49,3469.59 2285.27,3470.82 2285.95,3469.20 2286.52,3464.73"/>
    </edge>
    <edge id=":antrim_13" function="internal">
        <lane id=":antrim_13_0" index="0" speed="8.55" length="21.05" shape="2283.60,3465.50 2285.38,3474.52 2287.14,3480.66 2288.88,3483.93 2290.60,3484.33"/>
    </edge>
    <edge id=":antrim_14" function="internal">
        <lane id=":antrim_14_0" index="0" speed="10.00" length="27.19" shape="2283.60,3465.50 2285.12,3476.36 2285.48,3484.36 2284.68,3489.51 2282.72,3491.79"/>
    </edge>
    <edge id=":antrim_15" function="internal">
        <lane id=":antrim_15_0" index="0" speed="10.00" length="38.42" shape="2283.60,3465.50 2280.10,3471.44 2270.31,3475.70 2258.69,3477.74 2249.67,3476.98"/>
    </edge>
    <edge id=":antrim_16" function="internal">
        <lane id=":antrim_16_0" index="0" speed="9.51" length="30.68" shape="2283.60,3465.50 2281.45,3471.50 2274.68,3475.83 2266.14,3477.74 2258.72,3476.48"/>
    </edge>
    <edge id=":antrim_17" function="internal">
        <lane id=":antrim_17_0" index="0" speed="8.92" length="29.30" shape="2283.60,3465.50 2281.41,3471.19 2274.69,3475.11 2266.44,3476.48 2259.67,3474.48"/>
    </edge>
    <edge id=":antrim_18" function="internal">
        <lane id=":antrim_18_0" index="0" speed="7.60" length="22.08" shape="2283.60,3465.50 2281.77,3469.48 2276.36,3471.75 2269.92,3471.99 2264.97,3469.86"/>
    </edge>
    <edge id=":antrim_19" function="internal">
        <lane id=":antrim_19_0" index="0" speed="7.00" length="19.30" shape="2283.60,3465.50 2281.90,3468.78 2277.00,3470.32 2271.27,3470.02 2267.11,3467.77"/>
    </edge>
    <edge id=":antrim_20" function="internal">
        <lane id=":antrim_20_0" index="0" speed="6.32" length="16.20" shape="2283.60,3465.50 2282.10,3467.95 2277.84,3468.58 2272.98,3467.61 2269.67,3465.25"/>
    </edge>
    <edge id=":antrim_21" function="internal">
        <lane id=":antrim_21_0" index="0" speed="5.60" length="12.99" shape="2283.60,3465.50 2282.40,3467.01 2279.04,3466.47 2275.28,3464.58 2272.91,3462.08"/>
    </edge>
    <edge id=":antrim_22" function="internal">
        <lane id=":antrim_22_0" index="0" speed="4.16" length="6.31" shape="2282.17,3465.89 2282.77,3468.10 2283.15,3468.79 2283.32,3467.95 2283.28,3465.59"/>
    </edge>
    <edge id=":antrim_23" function="internal">
        <lane id=":antrim_23_0" index="0" speed="5.98" length="14.60" shape="2282.17,3465.89 2283.60,3470.73 2284.81,3472.15 2285.78,3470.15 2286.52,3464.73"/>
    </edge>
    <edge id=":antrim_24" function="internal">
        <lane id=":antrim_24_0" index="0" speed="8.75" length="21.27" shape="2282.17,3465.89 2284.52,3474.77 2286.72,3480.80 2288.74,3483.99 2290.60,3484.33"/>
    </edge>
    <edge id=":antrim_25" function="internal">
        <lane id=":antrim_25_0" index="0" speed="10.00" length="26.89" shape="2282.17,3465.89 2284.35,3476.57 2285.17,3484.45 2284.63,3489.52 2282.72,3491.79"/>
    </edge>
    <edge id=":antrim_26" function="internal">
        <lane id=":antrim_26_0" index="0" speed="10.00" length="37.11" shape="2282.17,3465.89 2279.12,3471.71 2269.80,3475.85 2258.54,3477.79 2249.67,3476.98"/>
    </edge>
    <edge id=":antrim_27" function="internal">
        <lane id=":antrim_27_0" index="0" speed="9.16" length="29.25" shape="2282.17,3465.89 2280.41,3471.62 2274.03,3475.81 2265.87,3477.68 2258.72,3476.48"/>
    </edge>
    <edge id=":antrim_28" function="internal">
        <lane id=":antrim_28_0" index="0" speed="8.16" length="24.97" shape="2282.17,3465.89 2280.40,3470.39 2274.44,3473.07 2267.10,3473.59 2261.18,3471.61"/>
    </edge>
    <edge id=":antrim_29" function="internal">
        <lane id=":antrim_29_0" index="0" speed="7.24" length="20.42" shape="2282.17,3465.89 2280.63,3469.51 2275.62,3471.60 2269.59,3471.82 2264.97,3469.86"/>
    </edge>
    <edge id=":antrim_30" function="internal">
        <lane id=":antrim_30_0" index="0" speed="6.64" length="17.63" shape="2282.17,3465.89 2280.75,3468.82 2276.25,3470.16 2270.95,3469.84 2267.11,3467.77"/>
    </edge>
    <edge id=":antrim_31" function="internal">
        <lane id=":antrim_31_0" index="0" speed="5.27" length="11.51" shape="2282.17,3465.89 2281.23,3467.09 2278.31,3466.35 2275.01,3464.42 2272.91,3462.08"/>
    </edge>
    <edge id=":antrim_32" function="internal">
        <lane id=":antrim_32_0" index="0" speed="6.60" length="18.27" shape="2282.17,3465.89 2278.80,3470.41 2275.60,3471.82 2272.56,3470.10 2269.67,3465.25"/>
    </edge>
    <edge id=":antrim_33" function="internal">
        <lane id=":antrim_33_0" index="0" speed="6.91" length="19.94" shape="2275.37,3459.67 2279.09,3467.69 2281.65,3471.35 2283.05,3470.65 2283.28,3465.59"/>
    </edge>
    <edge id=":antrim_34" function="internal">
        <lane id=":antrim_34_0" index="0" speed="7.71" length="23.93" shape="2275.37,3459.67 2279.67,3468.52 2282.96,3472.32 2285.24,3471.05 2286.52,3464.73"/>
    </edge>
    <edge id=":antrim_35" function="internal">
        <lane id=":antrim_35_0" index="0" speed="10.00" length="29.80" shape="2275.37,3459.67 2280.59,3471.33 2284.87,3479.33 2288.20,3483.67 2290.60,3484.33"/>
    </edge>
    <edge id=":antrim_36" function="internal">
        <lane id=":antrim_36_0" index="0" speed="10.00" length="34.03" shape="2275.37,3459.67 2280.62,3473.04 2283.59,3482.85 2284.29,3489.10 2282.72,3491.79"/>
    </edge>
    <edge id=":antrim_37" function="internal">
        <lane id=":antrim_37_0" index="0" speed="9.78" length="34.37" shape="2275.37,3459.67 2273.98,3466.27 2266.93,3472.57 2257.68,3476.75 2249.67,3476.98"/>
    </edge>
    <edge id=":antrim_38" function="internal">
        <lane id=":antrim_38_0" index="0" speed="9.15" length="31.61" shape="2275.37,3459.67 2276.56,3468.26 2273.32,3474.91 2266.95,3478.14 2258.72,3476.48"/>
    </edge>
    <edge id=":antrim_39" function="internal">
        <lane id=":antrim_39_0" index="0" speed="7.93" length="25.25" shape="2275.37,3459.67 2275.98,3466.43 2272.82,3471.58 2267.38,3473.75 2261.18,3471.61"/>
    </edge>
    <edge id=":antrim_40" function="internal">
        <lane id=":antrim_40_0" index="0" speed="6.96" length="20.05" shape="2275.37,3459.67 2275.87,3465.22 2273.47,3469.73 2269.43,3471.75 2264.97,3469.86"/>
    </edge>
    <edge id=":antrim_41" function="internal">
        <lane id=":antrim_41_0" index="0" speed="5.75" length="13.57" shape="2275.37,3459.67 2275.05,3462.86 2272.70,3466.18 2269.62,3468.28 2267.11,3467.77"/>
    </edge>
    <edge id=":antrim_42" function="internal">
        <lane id=":antrim_42_0" index="0" speed="4.82" length="9.38" shape="2275.37,3459.67 2275.11,3461.89 2273.43,3464.23 2271.29,3465.68 2269.67,3465.25"/>
    </edge>
    <edge id=":antrim_43" function="internal">
        <lane id=":antrim_43_0" index="0" speed="3.74" length="5.03" shape="2275.37,3459.67 2275.66,3461.19 2275.34,3462.10 2274.43,3462.39 2272.91,3462.08"/>
    </edge>
    <edge id=":antrim_44" function="internal">
        <lane id=":antrim_44_0" index="0" speed="2.88" length="1.98" shape="2269.82,3465.11 2269.37,3464.53 2269.19,3464.37 2269.29,3464.61 2269.67,3465.25"/>
    </edge>
    <edge id=":antrim_45" function="internal">
        <lane id=":antrim_45_0" index="0" speed="5.07" length="10.18" shape="2269.82,3465.11 2267.54,3462.37 2266.48,3461.76 2266.63,3463.26 2268.00,3466.89"/>
    </edge>
    <edge id=":antrim_46" function="internal">
        <lane id=":antrim_46_0" index="0" speed="7.98" length="24.53" shape="2269.82,3465.11 2276.04,3472.20 2280.35,3474.64 2282.77,3472.44 2283.28,3465.59"/>
    </edge>
    <edge id=":antrim_47" function="internal">
        <lane id=":antrim_47_0" index="0" speed="8.64" length="27.38" shape="2269.82,3465.11 2276.47,3472.44 2281.47,3474.83 2284.82,3472.25 2286.52,3464.73"/>
    </edge>
    <edge id=":antrim_48" function="internal">
        <lane id=":antrim_48_0" index="0" speed="10.00" length="29.10" shape="2269.82,3465.11 2277.34,3474.47 2283.30,3480.80 2287.72,3484.09 2290.60,3484.33"/>
    </edge>
    <edge id=":antrim_49" function="internal">
        <lane id=":antrim_49_0" index="0" speed="10.00" length="30.04" shape="2269.82,3465.11 2274.48,3472.13 2279.29,3480.77 2282.58,3488.24 2282.72,3491.79"/>
    </edge>
    <edge id=":antrim_50" function="internal">
        <lane id=":antrim_50_0" index="0" speed="8.26" length="26.95" shape="2269.82,3465.11 2269.69,3469.96 2264.25,3474.40 2256.56,3477.16 2249.67,3476.98"/>
    </edge>
    <edge id=":antrim_51" function="internal">
        <lane id=":antrim_51_0" index="0" speed="6.79" length="18.54" shape="2269.82,3465.11 2270.10,3469.01 2267.23,3473.30 2262.89,3476.34 2258.72,3476.48"/>
    </edge>
    <edge id=":antrim_52" function="internal">
        <lane id=":antrim_52_0" index="0" speed="5.57" length="12.71" shape="2269.82,3465.11 2269.79,3467.64 2267.38,3470.26 2264.04,3471.93 2261.18,3471.61"/>
    </edge>
    <edge id=":antrim_53" function="internal">
        <lane id=":antrim_53_0" index="0" speed="4.85" length="9.55" shape="2269.82,3465.11 2270.40,3467.49 2269.24,3469.62 2267.16,3470.68 2264.97,3469.86"/>
    </edge>
    <edge id=":antrim_54" function="internal">
        <lane id=":antrim_54_0" index="0" speed="3.42" length="3.80" shape="2269.82,3465.11 2267.11,3467.77"/>
    </edge>
    <edge id=":antrim_55" function="internal">
        <lane id=":antrim_55_0" index="0" speed="3.12" length="2.69" shape="2269.44,3465.48 2270.07,3466.24 2270.31,3466.46 2270.18,3466.13 2269.67,3465.25"/>
    </edge>
    <edge id=":antrim_56" function="internal">
        <lane id=":antrim_56_0" index="0" speed="4.50" length="7.53" shape="2269.44,3465.48 2267.71,3463.51 2266.90,3463.08 2266.99,3464.21 2268.00,3466.89"/>
    </edge>
    <edge id=":antrim_57" function="internal">
        <lane id=":antrim_57_0" index="0" speed="8.05" length="24.83" shape="2269.44,3465.48 2275.82,3472.47 2280.26,3474.82 2282.75,3472.52 2283.28,3465.59"/>
    </edge>
    <edge id=":antrim_58" function="internal">
        <lane id=":antrim_58_0" index="0" speed="8.72" length="27.65" shape="2269.44,3465.48 2276.25,3472.70 2281.37,3474.98 2284.79,3472.32 2286.52,3464.73"/>
    </edge>
    <edge id=":antrim_59" function="internal">
        <lane id=":antrim_59_0" index="0" speed="10.00" length="29.12" shape="2269.44,3465.48 2277.11,3474.69 2283.20,3480.90 2287.69,3484.12 2290.60,3484.33"/>
    </edge>
    <edge id=":antrim_60" function="internal">
        <lane id=":antrim_60_0" index="0" speed="10.00" length="29.88" shape="2269.44,3465.48 2274.22,3472.41 2279.15,3480.91 2282.56,3488.28 2282.72,3491.79"/>
    </edge>
    <edge id=":antrim_61" function="internal">
        <lane id=":antrim_61_0" index="0" speed="8.15" length="26.35" shape="2269.44,3465.48 2269.34,3470.18 2264.00,3474.48 2256.43,3477.16 2249.67,3476.98"/>
    </edge>
    <edge id=":antrim_62" function="internal">
        <lane id=":antrim_62_0" index="0" speed="6.67" length="17.93" shape="2269.44,3465.48 2269.74,3469.23 2266.97,3473.38 2262.75,3476.33 2258.72,3476.48"/>
    </edge>
    <edge id=":antrim_63" function="internal">
        <lane id=":antrim_63_0" index="0" speed="5.44" length="12.09" shape="2269.44,3465.48 2269.42,3467.87 2267.12,3470.34 2263.91,3471.92 2261.18,3471.61"/>
    </edge>
    <edge id=":antrim_64" function="internal">
        <lane id=":antrim_64_0" index="0" speed="4.37" length="7.40" shape="2269.44,3465.48 2269.49,3467.07 2268.24,3468.84 2266.46,3470.04 2264.97,3469.86"/>
    </edge>
    <edge id=":antrim_65" function="internal">
        <lane id=":antrim_65_0" index="0" speed="3.68" length="4.77" shape="2269.44,3465.48 2269.71,3466.93 2269.41,3467.79 2268.54,3468.07 2267.11,3467.77"/>
    </edge>
    <edge id=":antrim_66" function="internal">
        <lane id=":antrim_66_0" index="0" speed="10.00" length="63.05" shape="2271.82,3463.14 2255.11,3446.70 2248.75,3442.00 2252.75,3449.02 2267.11,3467.77"/>
    </edge>
    <edge id=":antrim_67" function="internal">
        <lane id=":antrim_67_0" index="0" speed="5.68" length="13.43" shape="2271.82,3463.14 2268.30,3459.82 2266.77,3459.07 2267.23,3460.88 2269.67,3465.25"/>
    </edge>
    <edge id=":antrim_68" function="internal">
        <lane id=":antrim_68_0" index="0" speed="6.12" length="15.02" shape="2271.82,3463.14 2268.03,3459.76 2266.13,3459.25 2266.12,3461.63 2268.00,3466.89"/>
    </edge>
    <edge id=":antrim_69" function="internal">
        <lane id=":antrim_69_0" index="0" speed="6.90" length="16.89" shape="2271.82,3463.14 2277.01,3467.85 2280.65,3469.82 2282.74,3469.07 2283.28,3465.59"/>
    </edge>
    <edge id=":antrim_70" function="internal">
        <lane id=":antrim_70_0" index="0" speed="8.51" length="24.95" shape="2269.54,3465.38 2276.43,3471.28 2281.55,3473.13 2284.92,3470.95 2286.52,3464.73"/>
    </edge>
    <edge id=":antrim_71" function="internal">
        <lane id=":antrim_71_0" index="0" speed="10.00" length="28.45" shape="2269.54,3465.38 2278.18,3474.02 2284.56,3480.06 2288.70,3483.50 2290.60,3484.33"/>
    </edge>
    <edge id=":antrim_72" function="internal">
        <lane id=":antrim_72_0" index="0" speed="9.99" length="30.51" shape="2269.54,3465.38 2274.83,3471.98 2280.09,3480.42 2283.36,3487.94 2282.72,3491.79"/>
    </edge>
    <edge id=":antrim_73" function="internal">
        <lane id=":antrim_73_0" index="0" speed="7.49" length="22.98" shape="2267.25,3467.62 2267.34,3471.41 2262.53,3474.96 2255.69,3477.17 2249.67,3476.98"/>
    </edge>
    <edge id=":antrim_74" function="internal">
        <lane id=":antrim_74_0" index="0" speed="5.94" length="14.43" shape="2267.25,3467.62 2267.64,3470.51 2265.43,3473.86 2261.99,3476.31 2258.72,3476.48"/>
    </edge>
    <edge id=":antrim_75" function="internal">
        <lane id=":antrim_75_0" index="0" speed="4.64" length="8.55" shape="2267.25,3467.62 2267.29,3469.18 2265.57,3470.82 2263.17,3471.86 2261.18,3471.61"/>
    </edge>
    <edge id=":antrim_76" function="internal">
        <lane id=":antrim_76_0" index="0" speed="3.65" length="4.67" shape="2267.25,3467.62 2267.52,3469.04 2267.23,3469.88 2266.38,3470.16 2264.97,3469.86"/>
    </edge>
    <edge id=":antrim_77" function="internal">
        <lane id=":antrim_77_0" index="0" speed="6.64" length="19.80" shape="2268.97,3465.94 2263.57,3460.96 2261.46,3459.61 2262.64,3461.88 2267.11,3467.77"/>
    </edge>
    <edge id=":antrim_78" function="internal">
        <lane id=":antrim_78_0" index="0" speed="3.56" length="3.93" shape="2268.97,3465.94 2270.03,3466.87 2270.50,3467.07 2270.38,3466.53 2269.67,3465.25"/>
    </edge>
    <edge id=":antrim_79" function="internal">
        <lane id=":antrim_79_0" index="0" speed="4.07" length="5.48" shape="2268.97,3465.94 2270.39,3467.12 2271.11,3467.27 2271.13,3466.39 2270.45,3464.48"/>
    </edge>
    <edge id=":antrim_80" function="internal">
        <lane id=":antrim_80_0" index="0" speed="7.87" length="22.19" shape="2268.97,3465.94 2275.50,3471.34 2280.06,3473.08 2282.65,3471.16 2283.28,3465.59"/>
    </edge>
    <edge id=":antrim_81" function="internal">
        <lane id=":antrim_81_0" index="0" speed="8.65" length="25.44" shape="2268.97,3465.94 2276.10,3471.67 2281.40,3473.38 2284.87,3471.07 2286.52,3464.73"/>
    </edge>
    <edge id=":antrim_82" function="internal">
        <lane id=":antrim_82_0" index="0" speed="10.00" length="28.51" shape="2268.97,3465.94 2277.85,3474.34 2284.42,3480.20 2288.66,3483.53 2290.60,3484.33"/>
    </edge>
    <edge id=":antrim_83" function="internal">
        <lane id=":antrim_83_0" index="0" speed="9.68" length="29.03" shape="2266.69,3468.18 2272.31,3474.33 2278.21,3481.93 2282.35,3488.55 2282.72,3491.79"/>
    </edge>
    <edge id=":antrim_84" function="internal">
        <lane id=":antrim_84_0" index="0" speed="7.32" length="22.10" shape="2266.69,3468.18 2266.81,3471.74 2262.14,3475.09 2255.49,3477.18 2249.67,3476.98"/>
    </edge>
    <edge id=":antrim_85" function="internal">
        <lane id=":antrim_85_0" index="0" speed="5.75" length="13.51" shape="2266.69,3468.18 2267.08,3470.85 2265.01,3474.00 2261.79,3476.31 2258.72,3476.48"/>
    </edge>
    <edge id=":antrim_86" function="internal">
        <lane id=":antrim_86_0" index="0" speed="10.00" length="85.98" shape="2266.69,3468.18 2243.36,3445.92 2235.30,3438.78 2242.50,3446.76 2264.97,3469.86"/>
    </edge>
    <edge id=":antrim_87" function="internal">
        <lane id=":antrim_87_0" index="0" speed="4.81" length="9.47" shape="2266.69,3468.18 2266.60,3471.10 2265.65,3472.64 2263.84,3472.81 2261.18,3471.61"/>
    </edge>
    <edge id=":antrim_88" function="internal">
        <lane id=":antrim_88_0" index="0" speed="3.51" length="3.88" shape="2260.01,3473.84 2258.72,3473.24 2258.24,3473.14 2258.56,3473.56 2259.67,3474.48"/>
    </edge>
    <edge id=":antrim_89" function="internal">
        <lane id=":antrim_89_0" index="0" speed="6.93" length="20.30" shape="2260.01,3473.84 2267.03,3477.05 2270.20,3477.45 2269.51,3475.05 2264.97,3469.86"/>
    </edge>
    <edge id=":antrim_90" function="internal">
        <lane id=":antrim_90_0" index="0" speed="7.58" length="23.69" shape="2260.01,3473.84 2268.00,3477.34 2271.85,3477.50 2271.55,3474.31 2267.11,3467.77"/>
    </edge>
    <edge id=":antrim_91" function="internal">
        <lane id=":antrim_91_0" index="0" speed="8.24" length="26.92" shape="2260.01,3473.84 2268.74,3477.48 2273.26,3477.26 2273.57,3473.19 2269.67,3465.25"/>
    </edge>
    <edge id=":antrim_92" function="internal">
        <lane id=":antrim_92_0" index="0" speed="8.15" length="24.60" shape="2260.01,3473.84 2267.55,3476.80 2271.81,3476.23 2272.77,3472.12 2270.45,3464.48"/>
    </edge>
    <edge id=":antrim_93" function="internal">
        <lane id=":antrim_93_0" index="0" speed="10.00" length="33.02" shape="2260.01,3473.84 2270.56,3478.00 2277.96,3478.01 2282.20,3473.88 2283.28,3465.59"/>
    </edge>
    <edge id=":antrim_94" function="internal">
        <lane id=":antrim_94_0" index="0" speed="10.00" length="35.59" shape="2260.01,3473.84 2270.89,3478.02 2278.94,3477.89 2284.15,3473.46 2286.52,3464.73"/>
    </edge>
    <edge id=":antrim_95" function="internal">
        <lane id=":antrim_95_0" index="0" speed="10.00" length="32.82" shape="2260.01,3473.84 2271.64,3479.50 2280.62,3483.13 2286.94,3484.74 2290.60,3484.33"/>
    </edge>
    <edge id=":antrim_96" function="internal">
        <lane id=":antrim_96_0" index="0" speed="9.07" length="29.48" shape="2260.01,3473.84 2267.37,3478.20 2275.60,3483.91 2281.72,3489.08 2282.72,3491.79"/>
    </edge>
    <edge id=":antrim_97" function="internal">
        <lane id=":antrim_97_0" index="0" speed="5.37" length="12.28" shape="2260.01,3473.84 2260.21,3475.21 2257.30,3476.50 2253.15,3477.26 2249.67,3476.98"/>
    </edge>
    <edge id=":antrim_98" function="internal">
        <lane id=":antrim_98_0" index="0" speed="3.55" length="4.28" shape="2260.01,3473.84 2260.67,3474.98 2260.68,3475.80 2260.03,3476.30 2258.72,3476.48"/>
    </edge>
    <edge id=":antrim_99" function="internal">
        <lane id=":antrim_99_0" index="0" speed="2.72" length="1.48" shape="2249.61,3477.23 2250.15,3477.31 2250.34,3477.30 2250.18,3477.19 2249.67,3476.98"/>
    </edge>
    <edge id=":antrim_100" function="internal">
        <lane id=":antrim_100_0" index="0" speed="5.90" length="14.26" shape="2249.61,3477.23 2256.36,3478.35 2260.12,3478.60 2260.91,3477.98 2258.72,3476.48"/>
    </edge>
    <edge id=":antrim_101" function="internal">
        <lane id=":antrim_101_0" index="0" speed="6.49" length="16.48" shape="2249.61,3477.23 2256.95,3478.32 2261.07,3478.23 2261.98,3476.95 2259.67,3474.48"/>
    </edge>
    <edge id=":antrim_102" function="internal">
        <lane id=":antrim_102_0" index="0" speed="8.42" length="27.46" shape="2249.61,3477.23 2260.98,3478.73 2267.32,3478.01 2268.65,3475.05 2264.97,3469.86"/>
    </edge>
    <edge id=":antrim_103" function="internal">
        <lane id=":antrim_103_0" index="0" speed="9.03" length="30.41" shape="2249.61,3477.23 2261.74,3478.72 2268.70,3477.65 2270.48,3473.99 2267.11,3467.77"/>
    </edge>
    <edge id=":antrim_104" function="internal">
        <lane id=":antrim_104_0" index="0" speed="9.76" length="33.73" shape="2249.61,3477.23 2262.46,3478.67 2270.08,3477.16 2272.49,3472.68 2269.67,3465.25"/>
    </edge>
    <edge id=":antrim_105" function="internal">
        <lane id=":antrim_105_0" index="0" speed="10.00" length="36.79" shape="2248.96,3480.36 2261.79,3481.54 2269.65,3479.29 2272.54,3473.60 2270.45,3464.48"/>
    </edge>
    <edge id=":antrim_106" function="internal">
        <lane id=":antrim_106_0" index="0" speed="10.00" length="43.98" shape="2248.96,3480.36 2264.36,3481.95 2275.21,3480.01 2281.52,3474.56 2283.28,3465.59"/>
    </edge>
    <edge id=":antrim_107" function="internal">
        <lane id=":antrim_107_0" index="0" speed="10.00" length="46.58" shape="2248.96,3480.36 2264.66,3481.91 2276.15,3479.82 2283.44,3474.09 2286.52,3464.73"/>
    </edge>
    <edge id=":antrim_108" function="internal">
        <lane id=":antrim_108_0" index="0" speed="10.00" length="42.01" shape="2248.96,3480.36 2259.01,3482.13 2271.86,3484.02 2283.67,3485.07 2290.60,3484.33"/>
    </edge>
    <edge id=":antrim_109" function="internal">
        <lane id=":antrim_109_0" index="0" speed="9.67" length="38.37" shape="2248.96,3480.36 2263.57,3483.32 2276.13,3486.45 2283.55,3489.39 2282.72,3491.79"/>
    </edge>
    <edge id=":athlone_0" function="internal">
        <lane id=":athlone_0_0" index="0" speed="10.00" length="43.52" shape="1261.23,1998.93 1257.75,1982.73 1253.93,1970.78 1249.77,1963.09 1245.27,1959.65"/>
    </edge>
    <edge id=":athlone_1" function="internal">
        <lane id=":athlone_1_0" index="0" speed="10.00" length="45.79" shape="1261.23,1998.93 1259.26,1990.52 1255.53,1976.56 1251.29,1962.86 1247.80,1955.26"/>
    </edge>
    <edge id=":athlone_2" function="internal">
        <lane id=":athlone_2_0" index="0" speed="10.00" length="47.09" shape="1261.23,1998.93 1252.48,1952.66"/>
    </edge>
    <edge id=":athlone_3" function="internal">
        <lane id=":athlone_3_0" index="0" speed="10.00" length="42.99" shape="1261.23,1998.93 1258.50,1981.79 1257.29,1969.03 1257.60,1960.64 1259.43,1956.62"/>
    </edge>
    <edge id=":athlone_4" function="internal">
        <lane id=":athlone_4_0" index="0" speed="10.00" length="45.34" shape="1261.23,1998.93 1261.84,1988.78 1265.18,1974.91 1270.00,1962.52 1275.03,1956.81"/>
    </edge>
    <edge id=":athlone_5" function="internal">
        <lane id=":athlone_5_0" index="0" speed="10.00" length="41.68" shape="1261.23,1998.93 1261.71,1989.10 1264.84,1976.16 1269.64,1965.25 1275.10,1961.53"/>
    </edge>
    <edge id=":athlone_6" function="internal">
        <lane id=":athlone_6_0" index="0" speed="9.73" length="34.21" shape="1261.23,1998.93 1261.05,1989.89 1262.74,1978.91 1266.10,1970.50 1270.92,1969.16"/>
    </edge>
    <edge id=":athlone_7" function="internal">
        <lane id=":athlone_7_0" index="0" speed="8.22" length="26.79" shape="1261.23,1998.93 1262.95,1992.94 1268.45,1987.57 1275.17,1984.71 1280.53,1986.23"/>
    </edge>
    <edge id=":athlone_8" function="internal">
        <lane id=":athlone_8_0" index="0" speed="8.13" length="27.14" shape="1261.23,1998.93 1263.03,1992.82 1268.70,1987.31 1275.50,1984.39 1280.70,1986.09"/>
    </edge>
    <edge id=":athlone_9" function="internal">
        <lane id=":athlone_9_0" index="0" speed="7.63" length="24.37" shape="1261.23,1998.93 1262.92,1993.46 1268.14,1988.53 1274.30,1985.99 1278.80,1987.66"/>
    </edge>
    <edge id=":athlone_10" function="internal">
        <lane id=":athlone_10_0" index="0" speed="4.81" length="9.52" shape="1261.23,1998.93 1261.81,1996.54 1263.82,1995.16 1266.14,1995.15 1267.67,1996.87"/>
    </edge>
    <edge id=":athlone_11" function="internal">
        <lane id=":athlone_11_0" index="0" speed="3.65" length="4.67" shape="1261.23,1998.93 1261.80,1997.61 1262.52,1997.07 1263.38,1997.32 1264.38,1998.36"/>
    </edge>
    <edge id=":athlone_12" function="internal">
        <lane id=":athlone_12_0" index="0" speed="10.00" length="43.54" shape="1261.38,1998.90 1257.83,1982.71 1253.97,1970.77 1249.78,1963.09 1245.27,1959.65"/>
    </edge>
    <edge id=":athlone_13" function="internal">
        <lane id=":athlone_13_0" index="0" speed="10.00" length="45.81" shape="1261.38,1998.90 1259.38,1990.50 1255.59,1976.54 1251.31,1962.86 1247.80,1955.26"/>
    </edge>
    <edge id=":athlone_14" function="internal">
        <lane id=":athlone_14_0" index="0" speed="10.00" length="47.09" shape="1261.38,1998.90 1252.48,1952.66"/>
    </edge>
    <edge id=":athlone_15" function="internal">
        <lane id=":athlone_15_0" index="0" speed="10.00" length="42.97" shape="1261.38,1998.90 1258.58,1981.78 1257.32,1969.02 1257.61,1960.64 1259.43,1956.62"/>
    </edge>
    <edge id=":athlone_16" function="internal">
        <lane id=":athlone_16_0" index="0" speed="10.00" length="45.27" shape="1261.38,1998.90 1261.95,1988.76 1265.24,1974.90 1270.02,1962.52 1275.03,1956.81"/>
    </edge>
    <edge id=":athlone_17" function="internal">
        <lane id=":athlone_17_0" index="0" speed="10.00" length="41.62" shape="1261.38,1998.90 1261.82,1989.08 1264.90,1976.14 1269.65,1965.25 1275.10,1961.53"/>
    </edge>
    <edge id=":athlone_18" function="internal">
        <lane id=":athlone_18_0" index="0" speed="9.72" length="34.16" shape="1261.38,1998.90 1261.16,1989.87 1262.79,1978.89 1266.11,1970.49 1270.92,1969.16"/>
    </edge>
    <edge id=":athlone_19" function="internal">
        <lane id=":athlone_19_0" index="0" speed="8.19" length="26.63" shape="1261.38,1998.90 1263.07,1992.94 1268.53,1987.59 1275.20,1984.73 1280.53,1986.23"/>
    </edge>
    <edge id=":athlone_20" function="internal">
        <lane id=":athlone_20_0" index="0" speed="7.57" length="23.28" shape="1261.38,1998.90 1262.94,1993.70 1267.86,1989.06 1273.74,1986.64 1278.23,1988.13"/>
    </edge>
    <edge id=":athlone_21" function="internal">
        <lane id=":athlone_21_0" index="0" speed="7.04" length="20.48" shape="1261.38,1998.90 1262.82,1994.35 1267.27,1990.31 1272.50,1988.27 1276.32,1989.72"/>
    </edge>
    <edge id=":athlone_22" function="internal">
        <lane id=":athlone_22_0" index="0" speed="4.45" length="7.81" shape="1261.38,1998.90 1262.11,1997.37 1264.15,1996.28 1266.38,1995.99 1267.67,1996.87"/>
    </edge>
    <edge id=":athlone_23" function="internal">