<?xml version="1.0" encoding="UTF-8"?>

<!-- generated on 2024-09-30 19:55:19 by Eclipse SUMO netconvert Version 1.18.0
<configuration xmlns:xsi="http://www.w3.org/2001/XMLSchema-instance" xsi:noNamespaceSchemaLocation="http://sumo.dlr.de/xsd/netconvertConfiguration.xsd">

    <input>
        <node-files value="nod.xml"/>
        <edge-files value="edge_xmls/01998.xml"/>
    </input>

    <output>
        <output-file value="networks/01998.net.xml"/>
    </output>

</configuration>
-->

<net version="1.16" junctionCornerDetail="5" limitTurnSpeed="5.50" xmlns:xsi="http://www.w3.org/2001/XMLSchema-instance" xsi:noNamespaceSchemaLocation="http://sumo.dlr.de/xsd/net_file.xsd">

    <location netOffset="-682.00,4368.00" convBoundary="0.00,0.00,2498.00,3881.00" origBoundary="682.00,-4368.00,3180.00,-487.00" projParameter="!"/>

    <edge id=":antrim_0" function="internal">
        <lane id=":antrim_0_0" index="0" speed="10.00" length="28.04" shape="2293.64,3486.22 2269.48,3500.45"/>
    </edge>
    <edge id=":antrim_1" function="internal">
        <lane id=":antrim_1_0" index="0" speed="10.00" length="27.92" shape="2293.64,3486.22 2288.47,3488.75 2280.91,3491.90 2273.26,3494.85 2267.83,3496.82"/>
    </edge>
    <edge id=":antrim_2" function="internal">
        <lane id=":antrim_2_0" index="0" speed="10.00" length="48.38" shape="2293.64,3486.22 2285.01,3486.94 2269.81,3485.92 2254.50,3484.23 2245.51,3482.96"/>
    </edge>
    <edge id=":antrim_3" function="internal">
        <lane id=":antrim_3_0" index="0" speed="10.00" length="48.64" shape="2293.64,3486.22 2286.59,3488.28 2276.40,3487.80 2263.05,3484.78 2246.56,3479.22"/>
    </edge>
    <edge id=":antrim_4" function="internal">
        <lane id=":antrim_4_0" index="0" speed="10.00" length="39.29" shape="2293.64,3486.22 2288.49,3487.30 2280.61,3485.91 2270.01,3482.05 2256.69,3475.74"/>
    </edge>
    <edge id=":antrim_5" function="internal">
        <lane id=":antrim_5_0" index="0" speed="10.00" length="32.90" shape="2293.64,3486.22 2289.03,3486.96 2283.20,3484.31 2276.17,3478.25 2267.92,3468.80"/>
    </edge>
    <edge id=":antrim_6" function="internal">
        <lane id=":antrim_6_0" index="0" speed="10.00" length="44.39" shape="2293.64,3486.22 2289.80,3481.92 2283.76,3470.26 2277.83,3456.67 2274.31,3446.61"/>
    </edge>
    <edge id=":antrim_7" function="internal">
        <lane id=":antrim_7_0" index="0" speed="10.00" length="46.38" shape="2293.64,3486.22 2288.56,3485.15 2284.29,3476.61 2280.71,3462.74 2277.70,3445.69"/>
    </edge>
    <edge id=":antrim_8" function="internal">
        <lane id=":antrim_8_0" index="0" speed="10.00" length="46.08" shape="2293.64,3486.22 2288.67,3485.11 2284.84,3476.44 2281.92,3462.46 2279.72,3445.38"/>
    </edge>
    <edge id=":antrim_9" function="internal">
        <lane id=":antrim_9_0" index="0" speed="10.00" length="45.74" shape="2293.64,3486.22 2288.90,3485.05 2285.90,3476.14 2284.24,3461.92 2283.55,3444.80"/>
    </edge>
    <edge id=":antrim_10" function="internal">
        <lane id=":antrim_10_0" index="0" speed="10.00" length="45.70" shape="2293.64,3486.22 2289.00,3485.02 2286.40,3476.00 2285.35,3461.66 2285.36,3444.52"/>
    </edge>
    <edge id=":antrim_11" function="internal">
        <lane id=":antrim_11_0" index="0" speed="10.00" length="62.62" shape="2291.56,3443.87 2288.66,3464.69 2284.02,3481.06 2277.62,3492.98 2269.48,3500.45"/>
    </edge>
    <edge id=":antrim_12" function="internal">
        <lane id=":antrim_12_0" index="0" speed="10.00" length="60.75" shape="2291.56,3443.87 2288.55,3464.54 2283.60,3480.26 2276.69,3491.02 2267.83,3496.82"/>
    </edge>
    <edge id=":antrim_13" function="internal">
        <lane id=":antrim_13_0" index="0" speed="10.00" length="72.51" shape="2291.56,3443.87 2287.76,3464.96 2279.80,3478.29 2266.20,3484.19 2245.51,3482.96"/>
    </edge>
    <edge id=":antrim_14" function="internal">
        <lane id=":antrim_14_0" index="0" speed="10.00" length="70.53" shape="2291.56,3443.87 2287.54,3464.33 2279.17,3477.64 2265.75,3482.89 2246.56,3479.22"/>
    </edge>
    <edge id=":antrim_15" function="internal">
        <lane id=":antrim_15_0" index="0" speed="10.00" length="59.17" shape="2291.56,3443.87 2288.43,3461.56 2282.02,3474.10 2271.66,3479.49 2256.69,3475.74"/>
    </edge>
    <edge id=":antrim_16" function="internal">
        <lane id=":antrim_16_0" index="0" speed="10.00" length="45.16" shape="2291.56,3443.87 2288.83,3457.89 2283.56,3469.07 2276.39,3473.88 2267.92,3468.80"/>
    </edge>
    <edge id=":antrim_17" function="internal">
        <lane id=":antrim_17_0" index="0" speed="6.96" length="20.48" shape="2291.56,3443.87 2288.84,3447.54 2283.25,3449.54 2277.50,3449.39 2274.31,3446.61"/>
    </edge>
    <edge id=":antrim_18" function="internal">
        <lane id=":antrim_18_0" index="0" speed="6.71" length="19.48" shape="2291.56,3443.87 2289.27,3448.49 2284.82,3450.55 2280.27,3449.73 2277.70,3445.69"/>
    </edge>
    <edge id=":antrim_19" function="internal">
        <lane id=":antrim_19_0" index="0" speed="6.21" length="16.68" shape="2291.56,3443.87 2289.56,3447.82 2285.69,3449.57 2281.79,3448.85 2279.72,3445.38"/>
    </edge>
    <edge id=":antrim_20" function="internal">
        <lane id=":antrim_20_0" index="0" speed="5.18" length="11.33" shape="2291.56,3443.87 2290.15,3446.52 2287.44,3447.68 2284.79,3447.17 2283.55,3444.80"/>
    </edge>
    <edge id=":antrim_21" function="internal">
        <lane id=":antrim_21_0" index="0" speed="4.71" length="9.10" shape="2291.56,3443.87 2290.25,3446.36 2288.78,3447.29 2287.15,3446.68 2285.36,3444.52"/>
    </edge>
    <edge id=":antrim_22" function="internal">
        <lane id=":antrim_22_0" index="0" speed="2.80" length="1.75" shape="2285.48,3444.50 2285.44,3443.85 2285.41,3443.64 2285.38,3443.86 2285.36,3444.52"/>
    </edge>
    <edge id=":antrim_23" function="internal">
        <lane id=":antrim_23_0" index="0" speed="10.00" length="60.64" shape="2285.48,3444.50 2285.29,3465.02 2282.56,3481.18 2277.29,3492.99 2269.48,3500.45"/>
    </edge>
    <edge id=":antrim_24" function="internal">
        <lane id=":antrim_24_0" index="0" speed="10.00" length="58.61" shape="2285.48,3444.50 2285.19,3464.88 2282.15,3480.39 2276.37,3491.04 2267.83,3496.82"/>
    </edge>
    <edge id=":antrim_25" function="internal">
        <lane id=":antrim_25_0" index="0" speed="10.00" length="67.96" shape="2285.48,3444.50 2284.11,3464.30 2277.40,3477.42 2264.73,3483.70 2245.51,3482.96"/>
    </edge>
    <edge id=":antrim_26" function="internal">
        <lane id=":antrim_26_0" index="0" speed="10.00" length="65.54" shape="2285.48,3444.50 2283.79,3463.58 2276.70,3476.56 2264.27,3482.19 2246.56,3479.22"/>
    </edge>
    <edge id=":antrim_27" function="internal">
        <lane id=":antrim_27_0" index="0" speed="10.00" length="54.19" shape="2285.48,3444.50 2284.41,3460.84 2279.38,3473.00 2270.20,3478.72 2256.69,3475.74"/>
    </edge>
    <edge id=":antrim_28" function="internal">
        <lane id=":antrim_28_0" index="0" speed="10.00" length="39.85" shape="2285.48,3444.50 2284.53,3457.15 2280.88,3467.78 2275.14,3472.84 2267.92,3468.80"/>
    </edge>
    <edge id=":antrim_29" function="internal">
        <lane id=":antrim_29_0" index="0" speed="5.64" length="13.41" shape="2285.48,3444.50 2283.93,3446.95 2280.29,3448.36 2276.45,3448.37 2274.31,3446.61"/>
    </edge>
    <edge id=":antrim_30" function="internal">
        <lane id=":antrim_30_0" index="0" speed="5.13" length="11.07" shape="2285.48,3444.50 2284.44,3447.14 2281.92,3448.35 2279.23,3447.94 2277.70,3445.69"/>
    </edge>
    <edge id=":antrim_31" function="internal">
        <lane id=":antrim_31_0" index="0" speed="4.52" length="8.22" shape="2285.48,3444.50 2284.69,3446.45 2282.79,3447.36 2280.79,3447.05 2279.72,3445.38"/>
    </edge>
    <edge id=":antrim_32" function="internal">
        <lane id=":antrim_32_0" index="0" speed="3.14" length="2.84" shape="2285.48,3444.50 2285.11,3445.30 2284.66,3445.61 2284.15,3445.44 2283.55,3444.80"/>
    </edge>
    <edge id=":antrim_33" function="internal">
        <lane id=":antrim_33_0" index="0" speed="4.21" length="6.83" shape="2280.15,3445.31 2279.69,3442.80 2279.47,3441.97 2279.48,3442.83 2279.72,3445.38"/>
    </edge>
    <edge id=":antrim_34" function="internal">
        <lane id=":antrim_34_0" index="0" speed="7.15" length="23.18" shape="2280.15,3445.31 2281.80,3453.71 2282.92,3456.43 2283.51,3453.45 2283.55,3444.80"/>
    </edge>
    <edge id=":antrim_35" function="internal">
        <lane id=":antrim_35_0" index="0" speed="7.86" length="28.08" shape="2280.15,3445.31 2282.20,3455.37 2283.76,3458.59 2284.81,3454.98 2285.36,3444.52"/>
    </edge>
    <edge id=":antrim_36" function="internal">
        <lane id=":antrim_36_0" index="0" speed="10.00" length="59.19" shape="2280.15,3445.31 2282.34,3465.45 2281.29,3481.35 2277.00,3493.02 2269.48,3500.45"/>
    </edge>
    <edge id=":antrim_37" function="internal">
        <lane id=":antrim_37_0" index="0" speed="10.00" length="57.04" shape="2280.15,3445.31 2282.25,3465.32 2280.90,3480.57 2276.09,3491.07 2267.83,3496.82"/>
    </edge>
    <edge id=":antrim_38" function="internal">
        <lane id=":antrim_38_0" index="0" speed="10.00" length="52.98" shape="2280.15,3445.31 2276.59,3455.13 2266.66,3468.04 2254.81,3479.01 2245.51,3482.96"/>
    </edge>
    <edge id=":antrim_39" function="internal">
        <lane id=":antrim_39_0" index="0" speed="10.00" length="49.90" shape="2280.15,3445.31 2276.70,3454.75 2267.03,3466.73 2255.53,3476.48 2246.56,3479.22"/>
    </edge>
    <edge id=":antrim_40" function="internal">
        <lane id=":antrim_40_0" index="0" speed="10.00" length="41.10" shape="2280.15,3445.31 2278.23,3454.34 2271.94,3465.33 2263.90,3473.93 2256.69,3475.74"/>
    </edge>
    <edge id=":antrim_41" function="internal">
        <lane id=":antrim_41_0" index="0" speed="9.29" length="35.45" shape="2280.15,3445.31 2280.57,3456.72 2278.39,3466.81 2274.04,3472.03 2267.92,3468.80"/>
    </edge>
    <edge id=":antrim_42" function="internal">
        <lane id=":antrim_42_0" index="0" speed="4.27" length="7.08" shape="2280.15,3445.31 2279.44,3446.62 2277.53,3447.43 2275.46,3447.50 2274.31,3446.61"/>
    </edge>
    <edge id=":antrim_43" function="internal">
        <lane id=":antrim_43_0" index="0" speed="3.37" length="3.61" shape="2280.15,3445.31 2279.67,3446.32 2279.11,3446.72 2278.45,3446.51 2277.70,3445.69"/>
    </edge>
    <edge id=":antrim_44" function="internal">
        <lane id=":antrim_44_0" index="0" speed="3.49" length="3.95" shape="2277.39,3445.73 2277.75,3447.17 2277.92,3447.64 2277.91,3447.15 2277.70,3445.69"/>
    </edge>
    <edge id=":antrim_45" function="internal">
        <lane id=":antrim_45_0" index="0" speed="6.49" length="18.87" shape="2277.39,3445.73 2279.16,3452.55 2280.13,3454.76 2280.32,3452.37 2279.72,3445.38"/>
    </edge>
    <edge id=":antrim_46" function="internal">
        <lane id=":antrim_46_0" index="0" speed="8.13" length="29.93" shape="2277.39,3445.73 2280.30,3456.31 2282.29,3459.69 2283.38,3455.85 2283.55,3444.80"/>
    </edge>
    <edge id=":antrim_47" function="internal">
        <lane id=":antrim_47_0" index="0" speed="8.55" length="32.80" shape="2277.39,3445.73 2280.62,3457.18 2283.02,3460.79 2284.60,3456.57 2285.36,3444.52"/>
    </edge>
    <edge id=":antrim_48" function="internal">
        <lane id=":antrim_48_0" index="0" speed="10.00" length="58.65" shape="2277.39,3445.73 2280.81,3465.67 2280.63,3481.44 2276.85,3493.03 2269.48,3500.45"/>
    </edge>
    <edge id=":antrim_49" function="internal">
        <lane id=":antrim_49_0" index="0" speed="10.00" length="56.43" shape="2277.39,3445.73 2280.73,3465.54 2280.25,3480.66 2275.95,3491.09 2267.83,3496.82"/>
    </edge>
    <edge id=":antrim_50" function="internal">
        <lane id=":antrim_50_0" index="0" speed="10.00" length="61.70" shape="2277.39,3445.73 2278.82,3463.44 2273.84,3476.18 2262.66,3483.01 2245.51,3482.96"/>
    </edge>
    <edge id=":antrim_51" function="internal">
        <lane id=":antrim_51_0" index="0" speed="10.00" length="45.04" shape="2277.39,3445.73 2274.78,3454.59 2266.43,3465.40 2256.13,3474.01 2247.69,3476.23"/>
    </edge>
    <edge id=":antrim_52" function="internal">
        <lane id=":antrim_52_0" index="0" speed="10.00" length="39.33" shape="2277.39,3445.73 2276.13,3454.64 2270.77,3465.50 2263.54,3473.98 2256.69,3475.74"/>
    </edge>
    <edge id=":antrim_53" function="internal">
        <lane id=":antrim_53_0" index="0" speed="8.27" length="28.41" shape="2277.39,3445.73 2277.45,3453.66 2275.31,3462.74 2271.85,3469.08 2267.92,3468.80"/>
    </edge>
    <edge id=":antrim_54" function="internal">
        <lane id=":antrim_54_0" index="0" speed="3.65" length="4.68" shape="2277.39,3445.73 2276.95,3447.11 2276.29,3447.71 2275.41,3447.55 2274.31,3446.61"/>
    </edge>
    <edge id=":antrim_55" function="internal">
        <lane id=":antrim_55_0" index="0" speed="3.93" length="5.46" shape="2273.48,3446.95 2274.31,3448.78 2274.73,3449.33 2274.73,3448.61 2274.31,3446.61"/>
    </edge>
    <edge id=":antrim_56" function="internal">
        <lane id=":antrim_56_0" index="0" speed="6.56" length="18.52" shape="2273.48,3446.95 2276.36,3453.07 2278.02,3454.89 2278.47,3452.43 2277.70,3445.69"/>
    </edge>
    <edge id=":antrim_57" function="internal">
        <lane id=":antrim_57_0" index="0" speed="7.31" length="23.05" shape="2273.48,3446.95 2277.09,3454.49 2279.34,3456.75 2280.21,3453.71 2279.72,3445.38"/>
    </edge>
    <edge id=":antrim_58" function="internal">
        <lane id=":antrim_58_0" index="0" speed="8.28" length="29.19" shape="2273.48,3446.95 2278.08,3456.24 2281.30,3458.98 2283.12,3455.16 2283.55,3444.80"/>
    </edge>
    <edge id=":antrim_59" function="internal">
        <lane id=":antrim_59_0" index="0" speed="8.65" length="31.48" shape="2273.48,3446.95 2278.44,3456.81 2282.07,3459.69 2284.38,3455.59 2285.36,3444.52"/>
    </edge>
    <edge id=":antrim_60" function="internal">
        <lane id=":antrim_60_0" index="0" speed="10.00" length="58.56" shape="2273.48,3446.95 2279.73,3465.71 2281.14,3480.88 2277.73,3492.46 2269.48,3500.45"/>
    </edge>
    <edge id=":antrim_61" function="internal">
        <lane id=":antrim_61_0" index="0" speed="10.00" length="49.56" shape="2270.53,3448.18 2272.34,3458.97 2272.56,3474.87 2271.08,3489.58 2267.83,3496.82"/>
    </edge>
    <edge id=":antrim_62" function="internal">
        <lane id=":antrim_62_0" index="0" speed="10.00" length="45.30" shape="2270.53,3448.18 2269.30,3457.30 2262.59,3469.26 2253.59,3479.38 2245.51,3482.96"/>
    </edge>
    <edge id=":antrim_63" function="internal">
        <lane id=":antrim_63_0" index="0" speed="10.00" length="39.24" shape="2270.53,3448.18 2269.58,3456.46 2263.52,3466.45 2255.25,3474.32 2247.69,3476.23"/>
    </edge>
    <edge id=":antrim_64" function="internal">
        <lane id=":antrim_64_0" index="0" speed="9.53" length="34.32" shape="2270.53,3448.18 2270.93,3456.51 2267.87,3466.55 2262.67,3474.30 2256.69,3475.74"/>
    </edge>
    <edge id=":antrim_65" function="internal">
        <lane id=":antrim_65_0" index="0" speed="7.34" length="23.47" shape="2270.53,3448.18 2271.86,3454.86 2271.85,3462.92 2270.52,3468.76 2267.92,3468.80"/>
    </edge>
    <edge id=":antrim_66" function="internal">
        <lane id=":antrim_66_0" index="0" speed="8.85" length="32.84" shape="2270.43,3466.81 2275.31,3471.38 2277.58,3469.54 2277.25,3461.28 2274.31,3446.61"/>
    </edge>
    <edge id=":antrim_67" function="internal">
        <lane id=":antrim_67_0" index="0" speed="9.26" length="34.97" shape="2270.43,3466.81 2275.78,3471.66 2278.78,3469.76 2279.42,3461.10 2277.70,3445.69"/>
    </edge>
    <edge id=":antrim_68" function="internal">
        <lane id=":antrim_68_0" index="0" speed="9.49" length="36.04" shape="2270.43,3466.81 2276.03,3471.80 2279.45,3469.89 2280.68,3461.08 2279.72,3445.38"/>
    </edge>
    <edge id=":antrim_69" function="internal">
        <lane id=":antrim_69_0" index="0" speed="9.93" length="38.14" shape="2270.43,3466.81 2276.45,3471.99 2280.65,3470.05 2283.02,3460.98 2283.55,3444.80"/>
    </edge>
    <edge id=":antrim_70" function="internal">
        <lane id=":antrim_70_0" index="0" speed="10.00" length="39.17" shape="2270.43,3466.81 2276.64,3472.06 2281.19,3470.10 2284.10,3460.92 2285.36,3444.52"/>
    </edge>
    <edge id=":antrim_71" function="internal">
        <lane id=":antrim_71_0" index="0" speed="10.00" length="40.53" shape="2270.43,3466.81 2277.40,3476.95 2280.23,3485.68 2277.91,3493.39 2269.48,3500.45"/>
    </edge>
    <edge id=":antrim_72" function="internal">
        <lane id=":antrim_72_0" index="0" speed="10.00" length="32.78" shape="2270.43,3466.81 2273.54,3474.03 2274.36,3483.36 2272.57,3491.91 2267.83,3496.82"/>
    </edge>
    <edge id=":antrim_73" function="internal">
        <lane id=":antrim_73_0" index="0" speed="10.00" length="39.30" shape="2270.43,3466.81 2273.14,3475.22 2267.89,3480.88 2257.68,3483.55 2245.51,3482.96"/>
    </edge>
    <edge id=":antrim_74" function="internal">
        <lane id=":antrim_74_0" index="0" speed="8.41" length="28.22" shape="2270.43,3466.81 2270.11,3471.40 2263.85,3475.02 2255.20,3476.88 2247.69,3476.23"/>
    </edge>
    <edge id=":antrim_75" function="internal">
        <lane id=":antrim_75_0" index="0" speed="6.86" length="19.05" shape="2270.43,3466.81 2270.40,3470.36 2266.65,3473.81 2261.36,3476.00 2256.69,3475.74"/>
    </edge>
    <edge id=":antrim_76" function="internal">
        <lane id=":antrim_76_0" index="0" speed="3.65" length="4.67" shape="2270.43,3466.81 2270.55,3468.25 2270.17,3469.06 2269.30,3469.24 2267.92,3468.80"/>
    </edge>
    <edge id=":antrim_77" function="internal">
        <lane id=":antrim_77_0" index="0" speed="6.34" length="16.05" shape="2259.74,3469.79 2266.02,3472.75 2269.48,3473.58 2270.11,3472.26 2267.92,3468.80"/>
    </edge>
    <edge id=":antrim_78" function="internal">
        <lane id=":antrim_78_0" index="0" speed="10.00" length="39.99" shape="2259.74,3469.79 2269.25,3472.85 2274.84,3470.01 2276.53,3461.26 2274.31,3446.61"/>
    </edge>
    <edge id=":antrim_79" function="internal">
        <lane id=":antrim_79_0" index="0" speed="10.00" length="42.11" shape="2259.74,3469.79 2269.71,3472.93 2276.03,3469.96 2278.69,3460.88 2277.70,3445.69"/>
    </edge>
    <edge id=":antrim_80" function="internal">
        <lane id=":antrim_80_0" index="0" speed="10.00" length="43.24" shape="2259.74,3469.79 2269.97,3472.98 2276.71,3469.97 2279.96,3460.77 2279.72,3445.38"/>
    </edge>
    <edge id=":antrim_81" function="internal">
        <lane id=":antrim_81_0" index="0" speed="10.00" length="45.51" shape="2259.74,3469.79 2270.43,3473.06 2277.96,3469.98 2282.34,3460.56 2283.55,3444.80"/>
    </edge>
    <edge id=":antrim_82" function="internal">
        <lane id=":antrim_82_0" index="0" speed="10.00" length="46.64" shape="2259.74,3469.79 2270.64,3473.09 2278.54,3469.98 2283.45,3460.46 2285.36,3444.52"/>
    </edge>
    <edge id=":antrim_83" function="internal">
        <lane id=":antrim_83_0" index="0" speed="10.00" length="38.40" shape="2258.28,3472.63 2268.28,3479.07 2274.81,3486.31 2275.88,3493.66 2269.48,3500.45"/>
    </edge>
    <edge id=":antrim_84" function="internal">
        <lane id=":antrim_84_0" index="0" speed="9.74" length="34.05" shape="2258.28,3472.63 2267.09,3478.60 2272.98,3485.51 2273.91,3492.03 2267.83,3496.82"/>
    </edge>
    <edge id=":antrim_85" function="internal">
        <lane id=":antrim_85_0" index="0" speed="7.23" length="22.47" shape="2258.28,3472.63 2260.95,3476.28 2258.28,3480.03 2252.42,3482.66 2245.51,3482.96"/>
    </edge>
    <edge id=":antrim_86" function="internal">
        <lane id=":antrim_86_0" index="0" speed="5.89" length="15.21" shape="2258.28,3472.63 2259.76,3474.72 2257.23,3476.34 2252.57,3477.00 2247.69,3476.23"/>
    </edge>
    <edge id=":antrim_87" function="internal">
        <lane id=":antrim_87_0" index="0" speed="3.76" length="5.09" shape="2258.28,3472.63 2259.04,3474.01 2259.03,3474.98 2258.25,3475.56 2256.69,3475.74"/>
    </edge>
    <edge id=":athlone_0" function="internal">
        <lane id=":athlone_0_0" index="0" speed="7.16" length="16.49" shape="1258.10,1974.47 1256.31,1970.79 1253.76,1969.78 1250.44,1971.44 1246.35,1975.76"/>
    </edge>
    <edge id=":athlone_1" function="internal">
        <lane id=":athlone_1_0" index="0" speed="10.00" length="38.31" shape="1258.10,1974.47 1254.87,1968.66 1248.61,1963.40 1239.29,1958.68 1226.93,1954.52"/>
    </edge>
    <edge id=":athlone_2" function="internal">
        <lane id=":athlone_2_0" index="0" speed="10.00" length="42.77" shape="1258.10,1974.47 1254.81,1967.91 1248.41,1957.61 1241.05,1946.78 1234.87,1938.65"/>
    </edge>
    <edge id=":athlone_3" function="internal">
        <lane id=":athlone_3_0" index="0" speed="10.00" length="23.70" shape="1258.10,1974.47 1252.23,1951.51"/>
    </edge>
    <edge id=":athlone_4" function="internal">
        <lane id=":athlone_4_0" index="0" speed="10.00" length="22.02" shape="1258.10,1974.47 1257.21,1969.68 1256.72,1963.48 1256.86,1957.32 1257.83,1952.65"/>
    </edge>
    <edge id=":athlone_5" function="internal">
        <lane id=":athlone_5_0" index="0" speed="7.52" length="20.65" shape="1258.10,1974.47 1256.84,1967.51 1257.90,1963.85 1261.26,1963.50 1266.92,1966.46"/>
    </edge>
    <edge id=":athlone_6" function="internal">
        <lane id=":athlone_6_0" index="0" speed="5.09" length="10.12" shape="1258.10,1974.47 1258.40,1971.96 1260.30,1970.49 1262.81,1970.40 1264.96,1972.00"/>
    </edge>
    <edge id=":athlone_7" function="internal">
        <lane id=":athlone_7_0" index="0" speed="3.53" length="4.19" shape="1258.10,1974.47 1258.53,1973.25 1259.14,1972.73 1259.92,1972.90 1260.88,1973.77"/>
    </edge>
    <edge id=":athlone_8" function="internal">
        <lane id=":athlone_8_0" index="0" speed="5.98" length="10.82" shape="1265.83,1958.69 1263.47,1960.17 1262.87,1961.96 1264.02,1964.06 1266.92,1966.46"/>
    </edge>
    <edge id=":athlone_9" function="internal">
        <lane id=":athlone_9_0" index="0" speed="7.88" length="15.64" shape="1265.83,1958.69 1262.98,1960.67 1261.89,1963.55 1262.55,1967.33 1264.96,1972.00"/>
    </edge>
    <edge id=":athlone_10" function="internal">
        <lane id=":athlone_10_0" index="0" speed="9.31" length="17.47" shape="1265.83,1958.69 1262.54,1960.86 1260.62,1964.09 1260.07,1968.39 1260.88,1973.77"/>
    </edge>
    <edge id=":athlone_11" function="internal">
        <lane id=":athlone_11_0" index="0" speed="10.00" length="26.00" shape="1265.83,1958.69 1261.27,1961.61 1255.52,1966.47 1250.05,1971.71 1246.35,1975.76"/>
    </edge>
    <edge id=":athlone_12" function="internal">
        <lane id=":athlone_12_0" index="0" speed="10.00" length="39.24" shape="1265.83,1958.69 1258.48,1959.03 1246.45,1957.82 1234.39,1956.00 1226.93,1954.52"/>
    </edge>
    <edge id=":athlone_13" function="internal">
        <lane id=":athlone_13_0" index="0" speed="10.00" length="38.56" shape="1265.83,1958.69 1260.03,1959.03 1252.94,1955.80 1244.55,1949.01 1234.87,1938.65"/>
    </edge>
    <edge id=":athlone_14" function="internal">
        <lane id=":athlone_14_0" index="0" speed="8.52" length="18.31" shape="1265.83,1958.69 1260.86,1959.93 1256.94,1959.15 1254.06,1956.34 1252.23,1951.51"/>
    </edge>
    <edge id=":athlone_15" function="internal">
        <lane id=":athlone_15_0" index="0" speed="6.84" length="16.19" shape="1265.83,1958.69 1260.51,1960.29 1257.41,1959.82 1256.52,1957.27 1257.83,1952.65"/>
    </edge>
    <edge id=":athlone_16" function="internal">
        <lane id=":athlone_16_0" index="0" speed="7.99" length="14.29" shape="1262.33,1954.70 1261.09,1957.64 1261.43,1960.58 1263.38,1963.52 1266.92,1966.46"/>
    </edge>
    <edge id=":athlone_17" function="internal">
        <lane id=":athlone_17_0" index="0" speed="10.00" length="18.52" shape="1262.33,1954.70 1260.84,1958.16 1260.78,1962.19 1262.15,1966.81 1264.96,1972.00"/>
    </edge>
    <edge id=":athlone_18" function="internal">
        <lane id=":athlone_18_0" index="0" speed="10.00" length="19.68" shape="1262.33,1954.70 1260.52,1958.37 1259.67,1962.77 1259.79,1967.91 1260.88,1973.77"/>
    </edge>
    <edge id=":athlone_19" function="internal">
        <lane id=":athlone_19_0" index="0" speed="10.00" length="26.44" shape="1262.33,1954.70 1246.35,1975.76"/>
    </edge>
    <edge id=":athlone_20" function="internal">
        <lane id=":athlone_20_0" index="0" speed="10.00" length="36.85" shape="1262.33,1954.70 1258.00,1957.74 1250.65,1958.73 1240.30,1957.65 1226.93,1954.52"/>
    </edge>
    <edge id=":athlone_21" function="internal">
        <lane id=":athlone_21_0" index="0" speed="10.00" length="35.16" shape="1262.33,1954.70 1257.47,1957.22 1250.96,1954.51 1243.27,1947.88 1234.87,1938.65"/>
    </edge>
    <edge id=":athlone_22" function="internal">
        <lane id=":athlone_22_0" index="0" speed="6.07" length="12.08" shape="1262.33,1954.70 1260.01,1955.91 1256.81,1955.48 1253.85,1953.87 1252.23,1951.51"/>
    </edge>
    <edge id=":athlone_23" function="internal">
        <lane id=":athlone_23_0" index="0" speed="4.39" length="7.22" shape="1262.33,1954.70 1260.44,1955.87 1259.06,1955.93 1258.19,1954.85 1257.83,1952.65"/>
    </edge>
    <edge id=":athlone_24" function="internal">
        <lane id=":athlone_24_0" index="0" speed="5.48" length="10.65" shape="1229.53,1945.27 1233.05,1945.92 1234.70,1945.38 1234.50,1943.65 1232.43,1940.73"/>
    </edge>
    <edge id=":athlone_25" function="internal">
        <lane id=":athlone_25_0" index="0" speed="8.73" length="23.57" shape="1229.53,1945.27 1233.51,1946.50 1241.32,1948.86 1248.91,1950.99 1252.23,1951.51"/>
    </edge>
    <edge id=":athlone_26" function="internal">
        <lane id=":athlone_26_0" index="0" speed="10.00" length="29.28" shape="1229.53,1945.27 1234.30,1946.67 1243.89,1949.41 1253.38,1951.93 1257.83,1952.65"/>
    </edge>
    <edge id=":athlone_27" function="internal">
        <lane id=":athlone_27_0" index="0" speed="10.00" length="42.43" shape="1228.66,1948.35 1240.15,1952.50 1251.66,1957.87 1261.23,1963.02 1266.92,1966.46"/>
    </edge>
    <edge id=":athlone_28" function="internal">
        <lane id=":athlone_28_0" index="0" speed="10.00" length="43.72" shape="1228.66,1948.35 1240.05,1953.16 1251.21,1960.12 1260.18,1967.10 1264.96,1972.00"/>
    </edge>
    <edge id=":athlone_29" function="internal">
        <lane id=":athlone_29_0" index="0" speed="10.00" length="41.48" shape="1227.80,1951.43 1240.94,1955.93 1250.83,1961.16 1257.48,1967.10 1260.88,1973.77"/>
    </edge>
    <edge id=":athlone_30" function="internal">
        <lane id=":athlone_30_0" index="0" speed="10.00" length="38.19" shape="1227.80,1951.43 1239.05,1955.34 1247.08,1960.43 1250.11,1967.10 1246.35,1975.76"/>
    </edge>
    <edge id=":athlone_31" function="internal">
        <lane id=":athlone_31_0" index="0" speed="3.65" length="4.67" shape="1227.80,1951.43 1228.74,1952.53 1228.91,1953.41 1228.31,1954.07 1226.93,1954.52"/>
    </edge>
    <edge id=":athlone_32" function="internal">
        <lane id=":athlone_32_0" index="0" speed="8.11" length="23.82" shape="1244.38,1965.10 1246.00,1963.06 1243.63,1960.62 1237.28,1957.77 1226.93,1954.52"/>
    </edge>
    <edge id=":athlone_33" function="internal">
        <lane id=":athlone_33_0" index="0" speed="10.00" length="28.92" shape="1244.38,1965.10 1245.94,1962.41 1244.47,1957.45 1239.97,1950.22 1232.43,1940.73"/>
    </edge>
    <edge id=":athlone_34" function="internal">
        <lane id=":athlone_34_0" index="0" speed="9.63" length="17.04" shape="1244.38,1965.10 1248.54,1962.39 1251.23,1959.22 1252.46,1955.60 1252.23,1951.51"/>
    </edge>
    <edge id=":athlone_35" function="internal">
        <lane id=":athlone_35_0" index="0" speed="10.00" length="18.57" shape="1244.38,1965.10 1248.09,1962.85 1252.04,1959.75 1255.53,1956.22 1257.83,1952.65"/>
    </edge>
    <edge id=":athlone_36" function="internal">
        <lane id=":athlone_36_0" index="0" speed="10.00" length="23.76" shape="1244.38,1965.10 1250.19,1962.95 1255.88,1962.46 1261.46,1963.63 1266.92,1966.46"/>
    </edge>
    <edge id=":athlone_37" function="internal">
        <lane id=":athlone_37_0" index="0" speed="10.00" length="24.21" shape="1244.38,1965.10 1250.24,1963.21 1255.62,1963.73 1260.52,1966.66 1264.96,1972.00"/>
    </edge>
    <edge id=":athlone_38" function="internal">
        <lane id=":athlone_38_0" index="0" speed="8.83" length="20.47" shape="1244.38,1965.10 1249.08,1964.42 1254.14,1966.12 1258.44,1969.48 1260.88,1973.77"/>
    </edge>
    <edge id=":athlone_39" function="internal">
        <lane id=":athlone_39_0" index="0" speed="6.12" length="14.70" shape="1244.38,1965.10 1247.48,1964.95 1248.78,1967.64 1248.37,1971.72 1246.35,1975.76"/>
    </edge>
    <edge id=":athlone_40" function="internal">
        <lane id=":athlone_40_0" index="0" speed="5.60" length="11.86" shape="1250.83,1977.86 1251.38,1973.77 1250.82,1972.06 1249.14,1972.72 1246.35,1975.76"/>
    </edge>
    <edge id=":athlone_41" function="internal">
        <lane id=":athlone_41_0" index="0" speed="10.00" length="36.87" shape="1250.83,1977.86 1250.57,1970.50 1246.50,1964.16 1238.63,1958.83 1226.93,1954.52"/>
    </edge>
    <edge id=":athlone_42" function="internal">
        <lane id=":athlone_42_0" index="0" speed="10.00" length="42.49" shape="1250.83,1977.86 1250.66,1970.87 1247.54,1962.35 1241.46,1952.30 1232.43,1940.73"/>
    </edge>
    <edge id=":athlone_43" function="internal">
        <lane id=":athlone_43_0" index="0" speed="10.00" length="26.46" shape="1250.83,1977.86 1251.64,1972.36 1252.32,1964.68 1252.62,1957.00 1252.23,1951.51"/>
    </edge>
    <edge id=":athlone_44" function="internal">
        <lane id=":athlone_44_0" index="0" speed="10.00" length="26.18" shape="1250.83,1977.86 1252.08,1972.50 1253.98,1965.15 1256.05,1957.84 1257.83,1952.65"/>
    </edge>
    <edge id=":athlone_45" function="internal">