<?xml version="1.0" encoding="UTF-8"?>

<!-- generated on 2024-09-30 20:29:24 by Eclipse SUMO netconvert Version 1.18.0
<configuration xmlns:xsi="http://www.w3.org/2001/XMLSchema-instance" xsi:noNamespaceSchemaLocation="http://sumo.dlr.de/xsd/netconvertConfiguration.xsd">

    <input>
        <node-files value="nod.xml"/>
        <edge-files value="edge_xmls/02617.xml"/>
    </input>

    <output>
        <output-file value="networks/02617.net.xml"/>
    </output>

</configuration>
-->

<net version="1.16" junctionCornerDetail="5" limitTurnSpeed="5.50" xmlns:xsi="http://www.w3.org/2001/XMLSchema-instance" xsi:noNamespaceSchemaLocation="http://sumo.dlr.de/xsd/net_file.xsd">

    <location netOffset="-682.00,4368.00" convBoundary="0.00,0.00,2498.00,3881.00" origBoundary="682.00,-4368.00,3180.00,-487.00" projParameter="!"/>

    <edge id=":antrim_0" function="internal">
        <lane id=":antrim_0_0" index="0" speed="3.65" length="4.67" shape="2286.13,3411.87 2285.35,3413.09 2284.56,3413.50 2283.75,3413.12 2282.93,3411.93"/>
    </edge>
    <edge id=":antrim_1" function="internal">
        <lane id=":antrim_1_0" index="0" speed="9.20" length="40.72" shape="2279.39,3412.15 2281.23,3427.26 2282.43,3432.26 2283.00,3427.15 2282.93,3411.93"/>
    </edge>
    <edge id=":antrim_2" function="internal">
        <lane id=":antrim_2_0" index="0" speed="10.00" length="70.70" shape="2281.48,3482.42 2282.64,3479.05 2283.26,3466.17 2283.36,3443.80 2282.93,3411.93"/>
    </edge>
    <edge id=":athlone_0" function="internal">
        <lane id=":athlone_0_0" index="0" speed="5.94" length="9.92" shape="1264.35,1965.08 1261.67,1964.75 1259.95,1965.58 1259.19,1967.58 1259.39,1970.74"/>
    </edge>
    <edge id=":athlone_1" function="internal">
        <lane id=":athlone_1_0" index="0" speed="7.86" length="12.78" shape="1264.35,1965.08 1260.95,1964.60 1258.12,1965.31 1255.86,1967.19 1254.18,1970.25"/>
    </edge>
    <edge id=":athlone_2" function="internal">
        <lane id=":athlone_2_0" index="0" speed="10.00" length="15.26" shape="1264.35,1965.08 1260.72,1963.89 1257.18,1962.35 1253.92,1960.35 1251.17,1957.80"/>
    </edge>
    <edge id=":athlone_3" function="internal">
        <lane id=":athlone_3_0" index="0" speed="10.00" length="12.28" shape="1252.56,1969.62 1253.11,1965.81 1253.07,1962.57 1252.42,1959.90 1251.17,1957.80"/>
    </edge>
    <edge id=":athlone_4" function="internal">
        <lane id=":athlone_4_0" index="0" speed="6.83" length="19.15" shape="1252.56,1969.62 1254.32,1963.33 1256.04,1961.41 1257.73,1963.89 1259.39,1970.74"/>
    </edge>
    <edge id=":athlone_5" function="internal">
        <lane id=":athlone_5_0" index="0" speed="5.18" length="11.12" shape="1252.56,1969.62 1251.81,1973.71 1251.83,1975.18 1252.62,1974.03 1254.18,1970.25"/>
    </edge>
    <edge id=":belfast_0" function="internal">
        <lane id=":belfast_0_0" index="0" speed="7.05" length="13.60" shape="2496.29,3350.40 2497.64,3355.30 2497.70,3358.80 2496.49,3360.90 2494.00,3361.60"/>
    </edge>
    <edge id=":belfast_1" function="internal">
        <lane id=":belfast_1_0" index="0" speed="9.20" length="31.99" shape="2496.29,3350.40 2495.71,3355.35 2489.70,3354.90 2480.64,3350.98 2470.96,3345.53"/>
    </edge>
    <edge id=":belfast_2" function="internal">
        <lane id=":belfast_2_0" index="0" speed="8.94" length="31.74" shape="2496.29,3350.40 2495.93,3355.35 2490.22,3354.03 2481.69,3348.89 2472.86,3342.40"/>
    </edge>
    <edge id=":belfast_3" function="internal">
        <lane id=":belfast_3_0" index="0" speed="3.78" length="5.11" shape="2496.29,3350.40 2496.15,3351.67 2495.15,3352.48 2493.87,3352.59 2492.94,3351.75"/>
    </edge>
    <edge id=":belfast_4" function="internal">
        <lane id=":belfast_4_0" index="0" speed="10.00" length="394.16" shape="2496.29,3350.40 2446.61,3211.23 2429.56,3165.04 2445.16,3211.82 2493.39,3351.57"/>
    </edge>
    <edge id=":belfast_5" function="internal">
        <lane id=":belfast_5_0" index="0" speed="3.65" length="4.68" shape="2496.29,3350.40 2495.99,3351.81 2495.40,3352.48 2494.51,3352.41 2493.32,3351.60"/>
    </edge>
    <edge id=":belfast_6" function="internal">
        <lane id=":belfast_6_0" index="0" speed="6.71" length="19.30" shape="2468.99,3350.05 2475.83,3351.69 2478.44,3351.48 2476.82,3349.43 2470.96,3345.53"/>
    </edge>
    <edge id=":belfast_7" function="internal">
        <lane id=":belfast_7_0" index="0" speed="7.57" length="24.03" shape="2468.99,3350.05 2477.32,3351.88 2480.73,3351.21 2479.25,3348.05 2472.86,3342.40"/>
    </edge>
    <edge id=":belfast_8" function="internal">
        <lane id=":belfast_8_0" index="0" speed="8.77" length="25.98" shape="2468.99,3350.05 2480.35,3352.97 2488.13,3354.23 2492.32,3353.82 2492.94,3351.75"/>
    </edge>
    <edge id=":belfast_9" function="internal">
        <lane id=":belfast_9_0" index="0" speed="8.92" length="26.37" shape="2468.99,3350.05 2480.44,3352.98 2488.30,3354.22 2492.60,3353.76 2493.32,3351.60"/>
    </edge>
    <edge id=":belfast_10" function="internal">
        <lane id=":belfast_10_0" index="0" speed="8.95" length="26.44" shape="2468.99,3350.05 2480.45,3352.98 2488.33,3354.21 2492.65,3353.74 2493.39,3351.57"/>
    </edge>
    <edge id=":belfast_11" function="internal">
        <lane id=":belfast_11_0" index="0" speed="9.46" length="40.23" shape="2468.99,3350.05 2479.58,3343.56 2487.28,3343.32 2492.08,3349.34 2494.00,3361.60"/>
    </edge>
    <edge id=":bray_0" function="internal">
        <lane id=":bray_0_0" index="0" speed="10.00" length="32.16" shape="2445.59,1656.71 2445.76,1660.19 2444.07,1666.36 2440.52,1675.21 2435.12,1686.76"/>
    </edge>
    <edge id=":bray_1" function="internal">
        <lane id=":bray_1_0" index="0" speed="7.26" length="15.01" shape="2445.59,1656.71 2446.02,1659.27 2444.37,1661.25 2440.64,1662.63 2434.83,1663.44"/>
    </edge>
    <edge id=":bray_2" function="internal">
        <lane id=":bray_2_0" index="0" speed="4.58" length="6.57" shape="2445.59,1656.71 2445.61,1658.20 2444.68,1659.76 2443.25,1660.87 2441.80,1660.99"/>
    </edge>
    <edge id=":bray_3" function="internal">
        <lane id=":bray_3_0" index="0" speed="4.48" length="6.37" shape="2445.59,1656.71 2445.59,1658.15 2444.66,1659.66 2443.26,1660.72 2441.86,1660.79"/>
    </edge>
    <edge id=":bray_4" function="internal">
        <lane id=":bray_4_0" index="0" speed="5.39" length="10.90" shape="2442.78,1658.01 2443.25,1659.32 2441.13,1661.08 2437.85,1662.66 2434.83,1663.44"/>
    </edge>
    <edge id=":bray_5" function="internal">
        <lane id=":bray_5_0" index="0" speed="9.17" length="40.67" shape="2442.78,1658.01 2428.63,1652.62 2423.76,1651.28 2428.17,1654.01 2441.86,1660.79"/>
    </edge>
    <edge id=":bray_6" function="internal">
        <lane id=":bray_6_0" index="0" speed="10.00" length="30.09" shape="2442.78,1658.01 2443.16,1661.78 2441.33,1669.75 2438.31,1679.03 2435.12,1686.76"/>
    </edge>
    <edge id=":bray_7" function="internal">
        <lane id=":bray_7_0" index="0" speed="3.63" length="4.59" shape="2442.78,1658.01 2443.65,1659.13 2443.78,1659.99 2443.16,1660.62 2441.80,1660.99"/>
    </edge>
    <edge id=":bray_8" function="internal">
        <lane id=":bray_8_0" index="0" speed="6.94" length="16.37" shape="2432.12,1675.89 2436.17,1670.23 2437.97,1666.27 2437.53,1664.00 2434.83,1663.44"/>
    </edge>
    <edge id=":bray_9" function="internal">
        <lane id=":bray_9_0" index="0" speed="8.17" length="17.99" shape="2432.12,1675.89 2436.97,1669.62 2440.19,1665.05 2441.80,1662.18 2441.80,1660.99"/>
    </edge>
    <edge id=":bray_10" function="internal">
        <lane id=":bray_10_0" index="0" speed="8.35" length="18.21" shape="2432.12,1675.89 2437.00,1669.58 2440.25,1664.96 2441.87,1662.03 2441.86,1660.79"/>
    </edge>
    <edge id=":bray_11" function="internal">
        <lane id=":bray_11_0" index="0" speed="6.01" length="15.35" shape="2432.12,1675.89 2434.62,1674.73 2436.12,1677.37 2436.36,1682.00 2435.12,1686.76"/>
    </edge>
    <edge id=":bray_12" function="internal">
        <lane id=":bray_12_0" index="0" speed="8.87" length="25.06" shape="2431.82,1685.14 2436.31,1675.41 2438.30,1668.55 2437.81,1664.56 2434.83,1663.44"/>
    </edge>
    <edge id=":bray_13" function="internal">
        <lane id=":bray_13_0" index="0" speed="10.00" length="26.35" shape="2431.82,1685.14 2436.93,1674.88 2440.30,1667.44 2441.92,1662.81 2441.80,1660.99"/>
    </edge>
    <edge id=":bray_14" function="internal">
        <lane id=":bray_14_0" index="0" speed="10.00" length="26.56" shape="2431.82,1685.14 2436.95,1674.84 2440.34,1667.35 2441.97,1662.66 2441.86,1660.79"/>
    </edge>
    <edge id=":bray_15" function="internal">
        <lane id=":bray_15_0" index="0" speed="3.83" length="5.36" shape="2431.82,1685.14 2433.25,1684.31 2434.28,1684.30 2434.90,1685.12 2435.12,1686.76"/>
    </edge>
    <edge id=":carlow_0" function="internal">
        <lane id=":carlow_0_0" index="0" speed="5.96" length="14.48" shape="1887.86,1169.57 1886.61,1164.47 1885.46,1162.76 1884.40,1164.46 1883.44,1169.54"/>
    </edge>
    <edge id=":carlow_1" function="internal">
        <lane id=":carlow_1_0" index="0" speed="10.00" length="32.38" shape="1879.86,1138.15 1882.64,1142.85 1884.17,1149.65 1884.43,1158.55 1883.44,1169.54"/>
    </edge>
    <edge id=":carlow_2" function="internal">
        <lane id=":carlow_2_0" index="0" speed="10.00" length="37.63" shape="1865.95,1141.22 1874.86,1144.29 1880.75,1150.03 1883.61,1158.45 1883.44,1169.54"/>
    </edge>
    <edge id=":carlow_3" function="internal">
        <lane id=":carlow_3_0" index="0" speed="10.00" length="36.56" shape="1865.71,1145.22 1875.84,1146.39 1881.68,1150.90 1883.96,1158.65 1883.44,1169.54"/>
    </edge>
    <edge id=":carlow_4" function="internal">
        <lane id=":carlow_4_0" index="0" speed="6.32" length="16.41" shape="1872.49,1167.02 1876.17,1163.55 1879.23,1162.81 1881.65,1164.81 1883.44,1169.54"/>
    </edge>
    <edge id=":carrick_0" function="internal">
        <lane id=":carrick_0_0" index="0" speed="7.38" length="20.94" shape="1129.96,2579.30 1127.09,2580.31 1126.30,2576.46 1126.91,2569.86 1128.22,2562.64"/>
    </edge>
    <edge id=":carrick_1" function="internal">
        <lane id=":carrick_1_0" index="0" speed="7.01" length="20.54" shape="1129.96,2579.30 1127.21,2580.58 1127.38,2576.84 1129.37,2570.48 1132.08,2563.91"/>
    </edge>
    <edge id=":castlebar_0" function="internal">
        <lane id=":castlebar_0_0" index="0" speed="5.88" length="11.54" shape="304.60,2450.27 301.27,2448.06 300.08,2446.13 301.02,2444.49 304.11,2443.12"/>
    </edge>
    <edge id=":castlebar_1" function="internal">
        <lane id=":castlebar_1_0" index="0" speed="3.65" length="4.67" shape="305.01,2446.19 303.64,2445.76 303.03,2445.11 303.18,2444.23 304.11,2443.12"/>
    </edge>
    <edge id=":cavan_0" function="internal">
        <lane id=":cavan_0_0" index="0" speed="10.00" length="27.29" shape="1690.00,2604.88 1689.31,2610.51 1688.33,2618.44 1687.22,2626.33 1686.12,2631.88"/>
    </edge>
    <edge id=":cavan_1" function="internal">
        <lane id=":cavan_1_0" index="0" speed="10.00" length="27.28" shape="1686.62,2604.65 1686.73,2610.34 1686.89,2618.34 1686.78,2626.31 1686.12,2631.88"/>
    </edge>
    <edge id=":clonmel_0" function="internal">
        <lane id=":clonmel_0_0" index="0" speed="9.68" length="23.27" shape="1387.02,629.85 1385.71,621.49 1385.33,614.66 1386.26,610.00 1388.90,608.17"/>
    </edge>
    <edge id=":clonmel_1" function="internal">
        <lane id=":clonmel_1_0" index="0" speed="8.96" length="22.55" shape="1390.86,628.74 1388.01,621.08 1386.32,614.58 1386.41,610.02 1388.90,608.17"/>
    </edge>
    <edge id=":cork_0" function="internal">
        <lane id=":cork_0_0" index="0" speed="7.03" length="19.34" shape="815.56,9.31 816.18,5.78 819.79,6.11 824.77,9.03 829.54,13.23"/>
    </edge>
    <edge id=":cork_1" function="internal">
        <lane id=":cork_1_0" index="0" speed="3.56" length="4.27" shape="815.56,9.31 816.05,8.09 816.70,7.58 817.49,7.79 818.42,8.72"/>
    </edge>
    <edge id=":cork_2" function="internal">
        <lane id=":cork_2_0" index="0" speed="5.72" length="12.72" shape="832.29,9.37 828.07,7.82 826.20,7.95 826.70,9.76 829.54,13.23"/>
    </edge>
    <edge id=":cork_3" function="internal">
        <lane id=":cork_3_0" index="0" speed="7.15" length="16.37" shape="832.29,9.37 825.76,6.83 821.27,5.88 818.83,6.51 818.42,8.72"/>
    </edge>
    <edge id=":craigavon_0" function="internal">
        <lane id=":craigavon_0_0" index="0" speed="7.81" length="28.45" shape="2151.03,3158.78 2142.81,3152.08 2139.70,3150.23 2141.71,3153.24 2148.84,3161.10"/>
    </edge>
    <edge id=":derry_0" function="internal">
        <lane id=":derry_0_0" index="0" speed="7.21" length="15.32" shape="1610.17,3868.11 1610.28,3872.19 1609.38,3876.65 1607.54,3880.05 1604.85,3880.92"/>
    </edge>
    <edge id=":derry_1" function="internal">
        <lane id=":derry_1_0" index="0" speed="5.00" length="9.65" shape="1610.17,3868.11 1609.74,3870.62 1607.93,3872.19 1605.65,3872.41 1603.79,3870.87"/>
    </edge>
    <edge id=":derry_2" function="internal">
        <lane id=":derry_2_0" index="0" speed="7.56" length="17.16" shape="1610.00,3868.14 1610.84,3874.61 1610.26,3878.89 1608.26,3881.00 1604.85,3880.92"/>
    </edge>
    <edge id=":derry_3" function="internal">
        <lane id=":derry_3_0" index="0" speed="4.61" length="7.96" shape="1610.00,3868.14 1609.37,3869.78 1607.46,3871.08 1605.27,3871.59 1603.79,3870.87"/>
    </edge>
    <edge id=":derry_4" function="internal">
        <lane id=":derry_4_0" index="0" speed="6.96" length="16.61" shape="1606.61,3869.36 1609.34,3875.41 1609.95,3879.35 1608.46,3881.19 1604.85,3880.92"/>
    </edge>
    <edge id=":derry_5" function="internal">
        <lane id=":derry_5_0" index="0" speed="3.65" length="4.67" shape="1606.61,3869.36 1606.47,3870.80 1605.95,3871.53 1605.06,3871.55 1603.79,3870.87"/>
    </edge>
    <edge id=":dublin_0" function="internal">
        <lane id=":dublin_0_0" index="0" speed="6.51" length="8.71" shape="2317.36,1811.71 2319.47,1812.81 2321.44,1812.99 2323.29,1812.27 2325.01,1810.64"/>
    </edge>
    <edge id=":dublin_1" function="internal">
        <lane id=":dublin_1_0" index="0" speed="3.65" length="4.67" shape="2317.36,1811.71 2317.87,1813.06 2317.73,1813.94 2316.94,1814.36 2315.50,1814.31"/>
    </edge>
    <edge id=":dundalk_0" function="internal">
        <lane id=":dundalk_0_0" index="0" speed="10.00" length="38.36" shape="2244.97,2634.81 2241.42,2629.24 2234.70,2621.04 2227.03,2612.33 2220.65,2605.23"/>
    </edge>
    <edge id=":dundalk_1" function="internal">
        <lane id=":dundalk_1_0" index="0" speed="10.00" length="38.46" shape="2244.97,2634.81 2241.33,2628.41 2234.70,2618.64 2227.83,2608.99 2223.46,2602.97"/>
    </edge>
    <edge id=":dundalk_2" function="internal">
        <lane id=":dundalk_2_0" index="0" speed="7.15" length="20.19" shape="2223.67,2620.78 2226.96,2621.22 2227.16,2619.13 2224.26,2614.52 2218.26,2607.37"/>
    </edge>
    <edge id=":dundalk_3" function="internal">
        <lane id=":dundalk_3_0" index="0" speed="8.55" length="28.44" shape="2223.67,2620.78 2230.04,2621.92 2232.13,2619.33 2229.94,2613.01 2223.46,2602.97"/>
    </edge>
    <edge id=":dundalk_4" function="internal">
        <lane id=":dundalk_4_0" index="0" speed="10.00" length="32.92" shape="2237.88,2632.07 2238.52,2629.45 2235.86,2624.11 2229.90,2616.04 2220.65,2605.23"/>
    </edge>
    <edge id=":dundalk_5" function="internal">
        <lane id=":dundalk_5_0" index="0" speed="10.00" length="33.51" shape="2237.88,2632.07 2238.76,2629.28 2236.65,2623.49 2231.55,2614.72 2223.46,2602.97"/>
    </edge>
    <edge id=":ennis_0" function="internal">
        <lane id=":ennis_0_0" index="0" speed="7.79" length="19.68" shape="485.46,1215.68 482.67,1210.76 482.92,1207.15 486.21,1204.85 492.53,1203.86"/>
    </edge>
    <edge id=":ennis_1" function="internal">
        <lane id=":ennis_1_0" index="0" speed="7.07" length="19.91" shape="488.58,1211.78 483.13,1208.62 481.98,1206.25 485.11,1204.66 492.53,1203.86"/>
    </edge>
    <edge id=":ennis_2" function="internal">
        <lane id=":ennis_2_0" index="0" speed="5.46" length="10.00" shape="490.29,1198.53 488.16,1201.00 487.82,1202.71 489.28,1203.66 492.53,1203.86"/>
    </edge>
    <edge id=":ennis_3" function="internal">
        <lane id=":ennis_3_0" index="0" speed="10.00" length="14.32" shape="478.81,1201.34 480.43,1202.63 483.25,1203.48 487.29,1203.89 492.53,1203.86"/>
    </edge>
    <edge id=":enniskillen_0" function="internal">
        <lane id=":enniskillen_0_0" index="0" speed="5.47" length="9.59" shape="1454.58,3050.66 1455.45,3053.50 1456.73,3054.62 1458.43,3054.04 1460.53,3051.74"/>
    </edge>
    <edge id=":enniskillen_1" function="internal">
        <lane id=":enniskillen_1_0" index="0" speed="6.92" length="12.90" shape="1454.58,3050.66 1455.75,3054.28 1457.67,3056.28 1460.33,3056.65 1463.74,3055.40"/>
    </edge>
    <edge id=":enniskillen_2" function="internal">
        <lane id=":enniskillen_2_0" index="0" speed="10.00" length="15.18" shape="1454.58,3050.66 1455.77,3055.18 1457.53,3058.67 1459.85,3061.12 1462.73,3062.54"/>
    </edge>
    <edge id=":enniskillen_3" function="internal">
        <lane id=":enniskillen_3_0" index="0" speed="10.00" length="19.33" shape="1454.58,3050.66 1458.09,3069.67"/>
    </edge>
    <edge id=":enniskillen_4" function="internal">
        <lane id=":enniskillen_4_0" index="0" speed="7.23" length="17.23" shape="1454.58,3050.66 1455.05,3056.56 1453.87,3059.98 1451.06,3060.90 1446.60,3059.33"/>
    </edge>
    <edge id=":enniskillen_5" function="internal">
        <lane id=":enniskillen_5_0" index="0" speed="4.31" length="7.04" shape="1454.58,3050.66 1453.98,3052.75 1453.02,3053.69 1451.68,3053.48 1449.98,3052.13"/>
    </edge>
    <edge id=":galway_0" function="internal">
        <lane id=":galway_0_0" index="0" speed="7.09" length="19.97" shape="476.81,1763.49 475.73,1757.22 476.36,1751.50 478.59,1748.33 482.33,1749.69"/>
    </edge>
    <edge id=":galway_1" function="internal">
        <lane id=":galway_1_0" index="0" speed="4.94" length="9.89" shape="476.81,1763.49 477.02,1760.96 478.84,1759.28 481.23,1758.95 483.18,1760.46"/>
    </edge>
    <edge id=":galway_2" function="internal">
        <lane id=":galway_2_0" index="0" speed="6.36" length="16.79" shape="480.35,1761.96 478.59,1756.80 478.26,1751.74 479.46,1748.73 482.33,1749.69"/>
    </edge>
    <edge id=":galway_3" function="internal">
        <lane id=":galway_3_0" index="0" speed="3.65" length="4.67" shape="480.35,1761.96 480.50,1760.53 481.01,1759.80 481.91,1759.78 483.18,1760.46"/>
    </edge>
    <edge id=":galway_4" function="internal">
        <lane id=":galway_4_0" index="0" speed="3.14" length="2.66" shape="482.02,1750.08 482.86,1750.59 483.19,1750.69 483.01,1750.39 482.33,1749.69"/>
    </edge>
    <edge id=":galway_5" function="internal">
        <lane id=":galway_5_0" index="0" speed="6.26" length="15.00" shape="482.02,1750.08 479.58,1749.09 478.96,1750.50 480.16,1754.28 483.18,1760.46"/>
    </edge>
    <edge id=":kilkenny_0" function="internal">
        <lane id=":kilkenny_0_0" index="0" speed="10.00" length="127.74" shape="1678.02,957.60 1682.18,1005.14 1685.17,1020.89 1686.97,1004.84 1687.60,957.00"/>
    </edge>
    <edge id=":kilkenny_1" function="internal">
        <lane id=":kilkenny_1_0" index="0" speed="3.67" length="4.68" shape="1684.40,957.12 1685.15,955.89 1685.94,955.46 1686.75,955.83 1687.60,957.00"/>
    </edge>
    <edge id=":letterkenny_0" function="internal">
        <lane id=":letterkenny_0_0" index="0" speed="10.00" length="27.30" shape="1352.49,3809.50 1348.79,3807.20 1345.57,3802.52 1342.84,3795.46 1340.58,3786.03"/>
    </edge>
    <edge id=":letterkenny_1" function="internal">
        <lane id=":letterkenny_1_0" index="0" speed="10.00" length="26.50" shape="1352.49,3809.50 1348.96,3807.15 1346.45,3802.40 1344.97,3795.24 1344.52,3785.68"/>
    </edge>
    <edge id=":letterkenny_2" function="internal">
        <lane id=":letterkenny_2_0" index="0" speed="8.01" length="16.37" shape="1352.49,3809.50 1348.99,3807.73 1347.28,3804.91 1347.38,3801.04 1349.27,3796.11"/>
    </edge>
    <edge id=":letterkenny_3" function="internal">
        <lane id=":letterkenny_3_0" index="0" speed="4.19" length="6.42" shape="1350.35,3796.70 1350.94,3794.37 1350.96,3793.49 1350.40,3794.07 1349.27,3796.11"/>
    </edge>
    <edge id=":letterkenny_4" function="internal">
        <lane id=":letterkenny_4_0" index="0" speed="6.96" length="19.31" shape="1350.35,3796.70 1348.09,3799.40 1345.19,3797.22 1342.43,3792.12 1340.58,3786.03"/>
    </edge>
    <edge id=":letterkenny_5" function="internal">
        <lane id=":letterkenny_5_0" index="0" speed="6.55" length="18.21" shape="1350.35,3796.70 1344.76,3796.13 1341.92,3794.10 1341.84,3790.62 1344.52,3785.68"/>
    </edge>
    <edge id=":limerick_0" function="internal">
        <lane id=":limerick_0_0" index="0" speed="7.92" length="18.43" shape="749.95,976.67 747.17,969.60 744.51,965.18 741.97,963.42 739.55,964.32"/>
    </edge>
    <edge id=":limerick_1" function="internal">
        <lane id=":limerick_1_0" index="0" speed="9.18" length="26.13" shape="749.95,976.67 747.95,968.82 747.97,962.27 750.79,958.10 757.20,957.40"/>
    </edge>
    <edge id=":limerick_2" function="internal">
        <lane id=":limerick_2_0" index="0" speed="10.00" length="34.41" shape="765.04,986.54 755.02,975.75 747.43,968.45 742.28,964.64 739.55,964.32"/>
    </edge>
    <edge id=":limerick_3" function="internal">
        <lane id=":limerick_3_0" index="0" speed="9.75" length="36.35" shape="767.42,984.41 759.38,974.83 753.16,965.57 751.51,958.98 757.20,957.40"/>
    </edge>
    <edge id=":limerick_4" function="internal">
        <lane id=":limerick_4_0" index="0" speed="10.00" length="36.50" shape="769.98,981.87 758.72,972.26 749.89,966.14 743.50,963.49 739.55,964.32"/>
    </edge>
    <edge id=":limerick_5" function="internal">
        <lane id=":limerick_5_0" index="0" speed="9.48" length="35.81" shape="769.98,981.87 761.17,973.36 753.93,964.87 751.52,958.77 757.20,957.40"/>
    </edge>
    <edge id=":limerick_6" function="internal">
        <lane id=":limerick_6_0" index="0" speed="10.00" length="17.45" shape="756.01,963.29 750.98,961.70 746.56,961.34 742.75,962.21 739.55,964.32"/>
    </edge>
    <edge id=":limerick_7" function="internal">
        <lane id=":limerick_7_0" index="0" speed="4.75" length="8.77" shape="756.01,963.29 754.10,961.37 753.66,959.75 754.69,958.43 757.20,957.40"/>
    </edge>
    <edge id=":longford_0" function="internal">
        <lane id=":longford_0_0" index="0" speed="10.00" length="19.99" shape="1358.86,2322.44 1355.55,2319.37 1351.27,2315.96 1346.86,2312.73 1343.11,2310.18"/>
    </edge>
    <edge id=":longford_1" function="internal">
        <lane id=":longford_1_0" index="0" speed="10.00" length="20.06" shape="1358.86,2322.44 1355.86,2319.03 1352.38,2314.79 1348.98,2310.47 1346.24,2306.85"/>
    </edge>
    <edge id=":longford_2" function="internal">
        <lane id=":longford_2_0" index="0" speed="10.00" length="14.62" shape="1358.86,2322.44 1356.52,2319.35 1355.11,2316.08 1354.63,2312.62 1355.08,2308.96"/>
    </edge>
    <edge id=":longford_3" function="internal">
        <lane id=":longford_3_0" index="0" speed="6.28" length="15.29" shape="1358.86,2322.44 1355.50,2318.29 1354.94,2315.98 1357.21,2315.51 1362.28,2316.87"/>
    </edge>
    <edge id=":longford_4" function="internal">
        <lane id=":longford_4_0" index="0" speed="6.47" length="8.88" shape="1358.81,2309.89 1358.36,2312.25 1358.79,2314.20 1360.10,2315.74 1362.28,2316.87"/>
    </edge>
    <edge id=":longford_5" function="internal">
        <lane id=":longford_5_0" index="0" speed="8.37" length="18.52" shape="1358.81,2309.89 1356.72,2313.12 1353.40,2314.25 1348.87,2313.26 1343.11,2310.18"/>
    </edge>
    <edge id=":longford_6" function="internal">
        <lane id=":longford_6_0" index="0" speed="7.38" length="17.37" shape="1358.81,2309.89 1356.79,2313.26 1354.02,2313.88 1350.50,2311.75 1346.24,2306.85"/>
    </edge>
    <edge id=":longford_7" function="internal">
        <lane id=":longford_7_0" index="0" speed="3.93" length="5.61" shape="1358.81,2309.89 1357.53,2311.06 1356.48,2311.29 1355.67,2310.59 1355.08,2308.96"/>
    </edge>
    <edge id=":longford_8" function="internal">
        <lane id=":longford_8_0" index="0" speed="10.00" length="18.42" shape="1353.35,2324.61 1352.73,2320.80 1350.81,2317.13 1347.61,2313.59 1343.11,2310.18"/>
    </edge>
    <edge id=":longford_9" function="internal">
        <lane id=":longford_9_0" index="0" speed="10.00" length="19.32" shape="1353.35,2324.61 1352.67,2320.29 1350.92,2315.36 1348.61,2310.62 1346.24,2306.85"/>
    </edge>
    <edge id=":longford_10" function="internal">
        <lane id=":longford_10_0" index="0" speed="10.00" length="15.77" shape="1353.35,2324.61 1353.46,2320.73 1353.78,2316.73 1354.31,2312.75 1355.08,2308.96"/>
    </edge>
    <edge id=":longford_11" function="internal">
        <lane id=":longford_11_0" index="0" speed="7.34" length="14.79" shape="1353.35,2324.61 1353.93,2320.05 1355.61,2317.24 1358.40,2316.18 1362.28,2316.87"/>
    </edge>
    <edge id=":monaghan_0" function="internal">
        <lane id=":monaghan_0_0" index="0" speed="6.44" length="9.03" shape="1841.42,2965.14 1839.13,2964.17 1837.10,2964.18 1835.33,2965.17 1833.81,2967.14"/>
    </edge>
    <edge id=":monaghan_1" function="internal">
        <lane id=":monaghan_1_0" index="0" speed="10.00" length="28.99" shape="1841.42,2965.14 1836.95,2961.31 1831.07,2955.10 1825.41,2948.63 1821.63,2944.03"/>
    </edge>
    <edge id=":monaghan_2" function="internal">
        <lane id=":monaghan_2_0" index="0" speed="10.00" length="27.00" shape="1841.42,2965.14 1836.83,2961.35 1833.36,2956.21 1831.03,2949.71 1829.83,2941.86"/>
        <lane id=":monaghan_2_1" index="1" speed="10.00" length="25.70" shape="1841.42,2965.14 1838.29,2962.10 1835.84,2957.16 1834.09,2950.34 1833.02,2941.63"/>
    </edge>
    <edge id=":monaghan_4" function="internal">
        <lane id=":monaghan_4_0" index="0" speed="7.38" length="17.95" shape="1825.45,2958.36 1827.94,2957.47 1828.14,2954.79 1826.03,2950.31 1821.63,2944.03"/>
    </edge>
    <edge id=":monaghan_5" function="internal">
        <lane id=":monaghan_5_0" index="0" speed="8.40" length="16.70" shape="1825.45,2958.36 1826.43,2957.34 1826.95,2954.30 1827.02,2949.22 1826.64,2942.10"/>
    </edge>
    <edge id=":monaghan_6" function="internal">
        <lane id=":monaghan_6_0" index="0" speed="7.29" length="16.10" shape="1825.45,2958.36 1830.96,2958.93 1834.18,2960.58 1835.13,2963.32 1833.81,2967.14"/>
    </edge>
    <edge id=":naas_0" function="internal">
        <lane id=":naas_0_0" index="0" speed="10.00" length="2.84" shape="2087.23,1622.80 2087.28,1623.60 2087.59,1624.11 2087.95,1624.62 2088.19,1625.41"/>
    </edge>
    <edge id=":naas_1" function="internal">
        <lane id=":naas_1_0" index="0" speed="9.60" length="6.19" shape="2087.23,1622.80 2086.59,1624.22 2085.41,1624.68 2083.91,1624.98 2082.33,1625.93"/>
    </edge>
    <edge id=":naas_2" function="internal">
        <lane id=":naas_2_0" index="0" speed="3.65" length="4.67" shape="2087.23,1622.80 2086.28,1623.89 2085.43,1624.17 2084.69,1623.67 2084.06,1622.37"/>
    </edge>
    <edge id=":navan_0" function="internal">
        <lane id=":navan_0_0" index="0" speed="10.00" length="12.16" shape="2086.56,2207.35 2085.31,2205.01 2083.35,2203.03 2080.69,2201.41 2077.31,2200.15"/>
    </edge>
    <edge id=":navan_1" function="internal">
        <lane id=":navan_1_0" index="0" speed="10.00" length="12.03" shape="2086.56,2207.35 2085.49,2204.25 2084.69,2201.64 2084.03,2198.99 2083.38,2195.77"/>
    </edge>
    <edge id=":navan_2" function="internal">
        <lane id=":navan_2_0" index="0" speed="3.65" length="4.67" shape="2086.56,2207.35 2086.91,2205.95 2087.53,2205.31 2088.42,2205.42 2089.58,2206.28"/>
    </edge>
    <edge id=":navan_3" function="internal">
        <lane id=":navan_3_0" index="0" speed="5.88" length="9.11" shape="2079.64,2206.97 2080.89,2204.65 2080.92,2202.73 2079.72,2201.24 2077.31,2200.15"/>
    </edge>
    <edge id=":navan_4" function="internal">
        <lane id=":navan_4_0" index="0" speed="10.00" length="12.12" shape="2079.64,2206.97 2081.62,2203.89 2082.90,2200.99 2083.49,2198.29 2083.38,2195.77"/>
    </edge>
    <edge id=":navan_5" function="internal">
        <lane id=":navan_5_0" index="0" speed="6.67" length="13.90" shape="2079.64,2206.97 2082.83,2203.42 2085.55,2202.12 2087.80,2203.08 2089.58,2206.28"/>
    </edge>
    <edge id=":omagh_0" function="internal">
        <lane id=":omagh_0_0" index="0" speed="10.00" length="22.98" shape="1617.68,3362.59 1613.51,3361.53 1609.96,3358.33 1607.02,3353.00 1604.70,3345.54"/>
    </edge>
    <edge id=":omagh_1" function="internal">
        <lane id=":omagh_1_0" index="0" speed="9.69" length="21.85" shape="1617.68,3362.59 1613.63,3361.50 1610.82,3358.23 1609.24,3352.76 1608.90,3345.11"/>
    </edge>
    <edge id=":omagh_2" function="internal">
        <lane id=":omagh_2_0" index="0" speed="6.87" length="16.60" shape="1614.20,3356.80 1611.86,3357.52 1608.97,3354.56 1606.32,3349.91 1604.70,3345.54"/>
    </edge>
    <edge id=":omagh_3" function="internal">
        <lane id=":omagh_3_0" index="0" speed="6.13" length="14.47" shape="1614.20,3356.80 1612.47,3357.15 1610.71,3353.96 1609.38,3349.27 1608.90,3345.11"/>
    </edge>
    <edge id=":omagh_4" function="internal">
        <lane id=":omagh_4_0" index="0" speed="7.21" length="18.97" shape="1613.92,3356.66 1611.24,3359.06 1608.67,3356.73 1606.42,3351.58 1604.70,3345.54"/>
    </edge>
    <edge id=":omagh_5" function="internal">
        <lane id=":omagh_5_0" index="0" speed="6.01" length="14.16" shape="1613.92,3356.66 1612.33,3357.03 1610.67,3353.87 1609.37,3349.22 1608.90,3345.11"/>
    </edge>