<?xml version="1.0" encoding="UTF-8"?>

<!-- generated on 2024-09-30 20:36:19 by Eclipse SUMO netconvert Version 1.18.0
<configuration xmlns:xsi="http://www.w3.org/2001/XMLSchema-instance" xsi:noNamespaceSchemaLocation="http://sumo.dlr.de/xsd/netconvertConfiguration.xsd">

    <input>
        <node-files value="nod.xml"/>
        <edge-files value="edge_xmls/02938.xml"/>
    </input>

    <output>
        <output-file value="networks/02938.net.xml"/>
    </output>

</configuration>
-->

<net version="1.16" junctionCornerDetail="5" limitTurnSpeed="5.50" xmlns:xsi="http://www.w3.org/2001/XMLSchema-instance" xsi:noNamespaceSchemaLocation="http://sumo.dlr.de/xsd/net_file.xsd">

    <location netOffset="-682.00,4368.00" convBoundary="0.00,0.00,2498.00,3881.00" origBoundary="682.00,-4368.00,3180.00,-487.00" projParameter="!"/>

    <edge id=":antrim_0" function="internal">
        <lane id=":antrim_0_0" index="0" speed="10.00" length="52.16" shape="2286.75,3444.29 2286.39,3462.34 2284.03,3476.66 2278.77,3485.61 2269.77,3487.56"/>
    </edge>
    <edge id=":antrim_1" function="internal">
        <lane id=":antrim_1_0" index="0" speed="10.00" length="45.74" shape="2286.75,3444.29 2284.46,3457.75 2278.14,3467.66 2269.43,3471.27 2259.98,3465.82"/>
    </edge>
    <edge id=":antrim_2" function="internal">
        <lane id=":antrim_2_0" index="0" speed="9.35" length="33.63" shape="2286.75,3444.29 2283.94,3451.95 2277.20,3459.62 2269.38,3464.32 2263.37,3463.07"/>
    </edge>
    <edge id=":antrim_3" function="internal">
        <lane id=":antrim_3_0" index="0" speed="9.34" length="33.58" shape="2286.75,3444.29 2283.95,3451.95 2277.21,3459.61 2269.41,3464.29 2263.42,3463.03"/>
    </edge>
    <edge id=":antrim_4" function="internal">
        <lane id=":antrim_4_0" index="0" speed="10.00" length="39.20" shape="2286.75,3444.29 2284.69,3455.84 2279.14,3464.41 2271.68,3467.51 2263.91,3462.63"/>
    </edge>
    <edge id=":antrim_5" function="internal">
        <lane id=":antrim_5_0" index="0" speed="7.92" length="26.75" shape="2286.75,3444.29 2285.01,3452.21 2280.68,3458.27 2275.56,3460.40 2271.46,3456.51"/>
    </edge>
    <edge id=":antrim_6" function="internal">
        <lane id=":antrim_6_0" index="0" speed="6.40" length="17.70" shape="2286.75,3444.29 2285.08,3448.54 2281.16,3450.53 2276.91,3449.91 2274.25,3446.36"/>
    </edge>
    <edge id=":antrim_7" function="internal">
        <lane id=":antrim_7_0" index="0" speed="5.50" length="12.92" shape="2286.75,3444.29 2285.48,3447.38 2282.53,3448.82 2279.43,3448.36 2277.66,3445.74"/>
    </edge>
    <edge id=":antrim_8" function="internal">
        <lane id=":antrim_8_0" index="0" speed="5.58" length="13.36" shape="2286.75,3444.29 2285.03,3448.04 2282.95,3449.53 2280.51,3448.76 2277.71,3445.73"/>
    </edge>
    <edge id=":antrim_9" function="internal">
        <lane id=":antrim_9_0" index="0" speed="7.63" length="25.29" shape="2265.86,3461.05 2271.72,3467.71 2274.61,3469.18 2274.52,3465.44 2271.46,3456.51"/>
    </edge>
    <edge id=":antrim_10" function="internal">
        <lane id=":antrim_10_0" index="0" speed="9.19" length="35.50" shape="2265.86,3461.05 2272.73,3468.13 2276.42,3468.04 2276.93,3460.78 2274.25,3446.36"/>
    </edge>
    <edge id=":antrim_11" function="internal">
        <lane id=":antrim_11_0" index="0" speed="8.77" length="31.12" shape="2265.86,3461.05 2271.50,3466.55 2274.82,3465.90 2275.82,3459.11 2274.49,3446.18"/>
    </edge>
    <edge id=":antrim_12" function="internal">
        <lane id=":antrim_12_0" index="0" speed="9.60" length="37.66" shape="2265.86,3461.05 2273.22,3468.43 2277.64,3468.33 2279.14,3460.77 2277.71,3445.73"/>
    </edge>
    <edge id=":antrim_13" function="internal">
        <lane id=":antrim_13_0" index="0" speed="9.68" length="35.19" shape="2265.86,3461.05 2272.43,3470.50 2276.77,3479.71 2276.63,3486.22 2269.77,3487.56"/>
    </edge>
    <edge id=":antrim_14" function="internal">
        <lane id=":antrim_14_0" index="0" speed="3.58" length="4.37" shape="2265.86,3461.05 2262.47,3463.80"/>
    </edge>
    <edge id=":antrim_15" function="internal">
        <lane id=":antrim_15_0" index="0" speed="3.23" length="3.14" shape="2265.86,3461.05 2263.42,3463.03"/>
    </edge>
    <edge id=":antrim_16" function="internal">
        <lane id=":antrim_16_0" index="0" speed="10.00" length="123.84" shape="2265.86,3461.05 2236.88,3424.79 2226.90,3412.97 2235.91,3425.58 2263.91,3462.63"/>
    </edge>
    <edge id=":antrim_17" function="internal">
        <lane id=":antrim_17_0" index="0" speed="3.65" length="4.67" shape="2265.86,3461.05 2265.99,3462.49 2265.63,3463.30 2264.75,3463.50 2263.37,3463.07"/>
    </edge>
    <edge id=":antrim_18" function="internal">
        <lane id=":antrim_18_0" index="0" speed="7.87" length="26.69" shape="2264.95,3461.79 2271.37,3468.52 2274.59,3469.89 2274.62,3465.88 2271.46,3456.51"/>
    </edge>
    <edge id=":antrim_19" function="internal">
        <lane id=":antrim_19_0" index="0" speed="9.37" length="36.49" shape="2264.95,3461.79 2272.27,3468.74 2276.26,3468.49 2276.92,3461.02 2274.25,3446.36"/>
    </edge>
    <edge id=":antrim_20" function="internal">
        <lane id=":antrim_20_0" index="0" speed="8.99" length="32.36" shape="2264.95,3461.79 2271.04,3467.26 2274.66,3466.49 2275.81,3459.46 2274.49,3446.18"/>
    </edge>
    <edge id=":antrim_21" function="internal">
        <lane id=":antrim_21_0" index="0" speed="9.77" length="38.54" shape="2264.95,3461.79 2272.73,3468.99 2277.44,3468.71 2279.11,3460.96 2277.71,3445.73"/>
    </edge>
    <edge id=":antrim_22" function="internal">
        <lane id=":antrim_22_0" index="0" speed="9.52" length="34.51" shape="2264.95,3461.79 2271.70,3470.87 2276.27,3479.85 2276.38,3486.23 2269.77,3487.56"/>
    </edge>
    <edge id=":antrim_23" function="internal">
        <lane id=":antrim_23_0" index="0" speed="10.00" length="59.79" shape="2264.95,3461.79 2250.33,3444.80 2245.20,3439.35 2249.55,3445.44 2263.37,3463.07"/>
    </edge>
    <edge id=":antrim_24" function="internal">
        <lane id=":antrim_24_0" index="0" speed="10.00" length="55.52" shape="2264.95,3461.79 2251.37,3446.02 2246.59,3440.97 2250.61,3446.64 2263.42,3463.03"/>
    </edge>
    <edge id=":antrim_25" function="internal">
        <lane id=":antrim_25_0" index="0" speed="7.24" length="24.68" shape="2264.95,3461.79 2258.90,3454.80 2256.71,3452.62 2258.38,3455.22 2263.91,3462.63"/>
    </edge>
    <edge id=":antrim_26" function="internal">
        <lane id=":antrim_26_0" index="0" speed="3.65" length="4.67" shape="2264.95,3461.79 2265.09,3463.22 2264.72,3464.04 2263.84,3464.23 2262.47,3463.80"/>
    </edge>
    <edge id=":antrim_27" function="internal">
        <lane id=":antrim_27_0" index="0" speed="2.98" length="2.27" shape="2262.29,3463.95 2262.91,3464.53 2263.15,3464.70 2263.00,3464.45 2262.47,3463.80"/>
    </edge>
    <edge id=":antrim_28" function="internal">
        <lane id=":antrim_28_0" index="0" speed="5.05" length="10.55" shape="2262.29,3463.95 2265.19,3466.62 2266.34,3467.36 2265.73,3466.18 2263.37,3463.07"/>
    </edge>
    <edge id=":antrim_29" function="internal">
        <lane id=":antrim_29_0" index="0" speed="5.11" length="10.84" shape="2262.29,3463.95 2265.27,3466.69 2266.45,3467.45 2265.84,3466.24 2263.42,3463.03"/>
    </edge>
    <edge id=":antrim_30" function="internal">
        <lane id=":antrim_30_0" index="0" speed="5.67" length="13.78" shape="2262.29,3463.95 2266.08,3467.42 2267.62,3468.35 2266.89,3466.76 2263.91,3462.63"/>
    </edge>
    <edge id=":antrim_31" function="internal">
        <lane id=":antrim_31_0" index="0" speed="8.48" length="30.06" shape="2262.29,3463.95 2270.18,3470.53 2274.34,3471.49 2274.77,3466.81 2271.46,3456.51"/>
    </edge>
    <edge id=":antrim_32" function="internal">
        <lane id=":antrim_32_0" index="0" speed="9.89" length="39.21" shape="2262.29,3463.95 2270.87,3470.39 2275.73,3469.61 2276.85,3461.60 2274.25,3446.36"/>
    </edge>
    <edge id=":antrim_33" function="internal">
        <lane id=":antrim_33_0" index="0" speed="10.00" length="41.05" shape="2262.29,3463.95 2271.28,3470.54 2276.83,3469.70 2278.96,3461.43 2277.66,3445.74"/>
    </edge>
    <edge id=":antrim_34" function="internal">
        <lane id=":antrim_34_0" index="0" speed="10.00" length="41.07" shape="2262.29,3463.95 2271.28,3470.54 2276.85,3469.70 2278.99,3461.43 2277.71,3445.73"/>
    </edge>
    <edge id=":antrim_35" function="internal">
        <lane id=":antrim_35_0" index="0" speed="8.45" length="28.00" shape="2262.29,3463.95 2267.11,3470.27 2271.30,3478.47 2272.86,3485.32 2269.77,3487.56"/>
    </edge>
    <edge id=":antrim_36" function="internal">
        <lane id=":antrim_36_0" index="0" speed="5.54" length="11.31" shape="2270.12,3492.67 2273.69,3491.14 2274.82,3489.77 2273.52,3488.58 2269.77,3487.56"/>
    </edge>
    <edge id=":antrim_37" function="internal">
        <lane id=":antrim_37_0" index="0" speed="10.00" length="32.12" shape="2270.12,3492.67 2273.19,3489.74 2272.52,3484.29 2268.12,3476.32 2259.98,3465.82"/>
    </edge>
    <edge id=":antrim_38" function="internal">
        <lane id=":antrim_38_0" index="0" speed="10.00" length="35.10" shape="2270.12,3492.67 2274.65,3489.15 2275.04,3483.04 2271.28,3474.35 2263.37,3463.07"/>
    </edge>
    <edge id=":antrim_39" function="internal">
        <lane id=":antrim_39_0" index="0" speed="10.00" length="35.12" shape="2270.12,3492.67 2274.66,3489.14 2275.05,3483.03 2271.31,3474.33 2263.42,3463.03"/>
    </edge>
    <edge id=":antrim_40" function="internal">
        <lane id=":antrim_40_0" index="0" speed="10.00" length="35.34" shape="2270.12,3492.67 2274.71,3489.11 2275.20,3482.92 2271.60,3474.09 2263.91,3462.63"/>
    </edge>
    <edge id=":antrim_41" function="internal">
        <lane id=":antrim_41_0" index="0" speed="10.00" length="39.82" shape="2270.12,3492.67 2275.37,3488.66 2277.34,3481.31 2276.04,3470.59 2271.46,3456.51"/>
    </edge>
    <edge id=":antrim_42" function="internal">
        <lane id=":antrim_42_0" index="0" speed="10.00" length="49.52" shape="2270.12,3492.67 2275.62,3488.00 2278.15,3478.73 2277.69,3464.85 2274.25,3446.36"/>
    </edge>
    <edge id=":antrim_43" function="internal">
        <lane id=":antrim_43_0" index="0" speed="10.00" length="50.29" shape="2270.12,3492.67 2275.88,3487.95 2279.05,3478.56 2279.65,3464.49 2277.66,3445.74"/>
    </edge>
    <edge id=":antrim_44" function="internal">
        <lane id=":antrim_44_0" index="0" speed="10.00" length="50.30" shape="2270.12,3492.67 2275.88,3487.95 2279.06,3478.56 2279.67,3464.48 2277.71,3445.73"/>
    </edge>
    <edge id=":athlone_0" function="internal">
        <lane id=":athlone_0_0" index="0" speed="5.82" length="14.72" shape="1257.30,1994.42 1258.40,1999.72 1259.09,2001.40 1259.36,1999.48 1259.21,1993.94"/>
    </edge>
    <edge id=":athlone_1" function="internal">
        <lane id=":athlone_1_0" index="0" speed="10.00" length="36.11" shape="1257.30,1994.42 1254.36,1979.86 1251.68,1969.30 1249.26,1962.73 1247.08,1960.16"/>
    </edge>
    <edge id=":athlone_2" function="internal">
        <lane id=":athlone_2_0" index="0" speed="10.00" length="38.58" shape="1257.30,1994.42 1255.87,1984.90 1254.27,1973.26 1252.39,1962.75 1250.17,1956.62"/>
    </edge>
    <edge id=":athlone_3" function="internal">
        <lane id=":athlone_3_0" index="0" speed="10.00" length="47.73" shape="1257.30,1994.42 1255.57,1980.24 1255.93,1967.81 1258.40,1957.13 1262.97,1948.18"/>
    </edge>
    <edge id=":athlone_4" function="internal">
        <lane id=":athlone_4_0" index="0" speed="10.00" length="46.18" shape="1260.41,1993.63 1258.31,1978.43 1258.13,1965.86 1259.87,1955.92 1263.53,1948.62"/>
    </edge>
    <edge id=":athlone_5" function="internal">
        <lane id=":athlone_5_0" index="0" speed="9.11" length="29.81" shape="1260.41,1993.63 1260.70,1985.72 1263.43,1977.06 1267.83,1970.94 1273.09,1970.63"/>
    </edge>
    <edge id=":athlone_6" function="internal">
        <lane id=":athlone_6_0" index="0" speed="6.78" length="18.86" shape="1260.41,1993.63 1262.00,1990.04 1266.68,1987.64 1272.08,1987.07 1275.85,1989.00"/>
    </edge>
    <edge id=":athlone_7" function="internal">
        <lane id=":athlone_7_0" index="0" speed="4.09" length="6.31" shape="1260.41,1993.63 1261.02,1992.45 1262.71,1991.68 1264.54,1991.56 1265.57,1992.33"/>
    </edge>
    <edge id=":athlone_8" function="internal">
        <lane id=":athlone_8_0" index="0" speed="6.30" length="17.20" shape="1262.47,1993.11 1260.73,1987.10 1259.61,1985.23 1259.10,1987.51 1259.21,1993.94"/>
    </edge>
    <edge id=":athlone_9" function="internal">
        <lane id=":athlone_9_0" index="0" speed="10.00" length="37.17" shape="1262.47,1993.11 1258.59,1979.49 1254.73,1969.46 1250.89,1963.02 1247.08,1960.16"/>
    </edge>
    <edge id=":athlone_10" function="internal">
        <lane id=":athlone_10_0" index="0" speed="10.00" length="38.58" shape="1262.47,1993.11 1260.49,1985.90 1257.07,1974.47 1253.28,1963.24 1250.17,1956.62"/>
    </edge>
    <edge id=":athlone_11" function="internal">
        <lane id=":athlone_11_0" index="0" speed="10.00" length="46.03" shape="1262.47,1993.11 1259.43,1978.14 1258.49,1965.67 1259.68,1955.68 1262.97,1948.18"/>
    </edge>
    <edge id=":athlone_12" function="internal">
        <lane id=":athlone_12_0" index="0" speed="10.00" length="45.73" shape="1262.47,1993.11 1259.46,1978.15 1258.63,1965.75 1259.99,1955.91 1263.53,1948.62"/>
    </edge>
    <edge id=":athlone_13" function="internal">
        <lane id=":athlone_13_0" index="0" speed="9.39" length="32.79" shape="1262.47,1993.11 1261.09,1982.86 1262.22,1973.95 1266.13,1968.99 1273.09,1970.63"/>
    </edge>
    <edge id=":athlone_14" function="internal">
        <lane id=":athlone_14_0" index="0" speed="6.79" length="19.39" shape="1262.47,1993.11 1263.17,1988.37 1266.87,1985.77 1271.72,1985.82 1275.85,1989.00"/>
    </edge>
    <edge id=":athlone_15" function="internal">
        <lane id=":athlone_15_0" index="0" speed="3.65" length="4.67" shape="1262.47,1993.11 1262.95,1991.75 1263.63,1991.17 1264.50,1991.36 1265.57,1992.33"/>
    </edge>
    <edge id=":athlone_16" function="internal">
        <lane id=":athlone_16_0" index="0" speed="7.46" length="23.08" shape="1271.30,1973.28 1267.93,1971.79 1267.56,1973.91 1270.20,1979.65 1275.85,1989.00"/>
    </edge>
    <edge id=":athlone_17" function="internal">
        <lane id=":athlone_17_0" index="0" speed="7.39" length="19.67" shape="1271.30,1973.28 1269.55,1973.17 1269.04,1976.04 1269.79,1981.91 1271.78,1990.76"/>
    </edge>
    <edge id=":athlone_18" function="internal">
        <lane id=":athlone_18_0" index="0" speed="9.63" length="31.38" shape="1271.30,1973.28 1265.46,1971.14 1261.50,1973.86 1259.42,1981.46 1259.21,1993.94"/>
    </edge>
    <edge id=":athlone_19" function="internal">
        <lane id=":athlone_19_0" index="0" speed="10.00" length="27.58" shape="1271.30,1973.28 1266.44,1970.24 1259.44,1966.18 1252.32,1962.39 1247.08,1960.16"/>
    </edge>
    <edge id=":athlone_20" function="internal">
        <lane id=":athlone_20_0" index="0" speed="10.00" length="26.94" shape="1271.30,1973.28 1266.71,1970.03 1260.39,1965.33 1254.25,1960.43 1250.17,1956.62"/>
    </edge>
    <edge id=":athlone_21" function="internal">
        <lane id=":athlone_21_0" index="0" speed="10.00" length="28.41" shape="1271.30,1973.28 1266.27,1968.21 1262.67,1961.36 1261.30,1954.20 1262.97,1948.18"/>
    </edge>
    <edge id=":athlone_22" function="internal">
        <lane id=":athlone_22_0" index="0" speed="10.00" length="27.92" shape="1271.30,1973.28 1266.38,1968.29 1262.89,1961.53 1261.67,1954.48 1263.53,1948.62"/>
    </edge>
    <edge id=":athlone_23" function="internal">
        <lane id=":athlone_23_0" index="0" speed="3.65" length="4.67" shape="1271.30,1973.28 1270.75,1971.95 1270.87,1971.06 1271.65,1970.62 1273.09,1970.63"/>
    </edge>
    <edge id=":athlone_24" function="internal">
        <lane id=":athlone_24_0" index="0" speed="8.47" length="24.98" shape="1282.06,1956.08 1273.18,1959.09 1268.72,1962.52 1268.69,1966.36 1273.09,1970.63"/>
    </edge>
    <edge id=":athlone_25" function="internal">
        <lane id=":athlone_25_0" index="0" speed="10.00" length="41.41" shape="1282.06,1956.08 1272.86,1960.36 1268.75,1967.27 1269.75,1976.82 1275.85,1989.00"/>
    </edge>
    <edge id=":athlone_26" function="internal">
        <lane id=":athlone_26_0" index="0" speed="10.00" length="40.50" shape="1282.06,1956.08 1274.70,1959.94 1270.54,1967.01 1269.56,1977.28 1271.78,1990.76"/>
    </edge>
    <edge id=":athlone_27" function="internal">
        <lane id=":athlone_27_0" index="0" speed="10.00" length="48.40" shape="1282.06,1956.08 1271.48,1960.75 1264.15,1968.62 1260.06,1979.68 1259.21,1993.94"/>
    </edge>
    <edge id=":athlone_28" function="internal">
        <lane id=":athlone_28_0" index="0" speed="10.00" length="35.30" shape="1282.06,1956.08 1275.23,1957.42 1264.56,1959.09 1253.90,1960.27 1247.08,1960.16"/>
    </edge>
    <edge id=":athlone_29" function="internal">
        <lane id=":athlone_29_0" index="0" speed="10.00" length="32.86" shape="1282.06,1956.08 1270.08,1958.63 1260.77,1959.57 1254.13,1958.90 1250.17,1956.62"/>
    </edge>
    <edge id=":athlone_30" function="internal">
        <lane id=":athlone_30_0" index="0" speed="8.00" length="23.47" shape="1282.06,1956.08 1275.71,1956.35 1268.54,1954.88 1263.35,1952.04 1262.97,1948.18"/>
    </edge>
    <edge id=":athlone_31" function="internal">
        <lane id=":athlone_31_0" index="0" speed="7.80" length="22.71" shape="1282.06,1956.08 1275.87,1956.34 1268.85,1954.94 1263.81,1952.24 1263.53,1948.62"/>
    </edge>
    <edge id=":athlone_32" function="internal">
        <lane id=":athlone_32_0" index="0" speed="9.08" length="26.89" shape="1280.89,1952.51 1272.33,1956.95 1268.18,1961.46 1268.43,1966.02 1273.09,1970.63"/>
    </edge>
    <edge id=":athlone_33" function="internal">
        <lane id=":athlone_33_0" index="0" speed="10.00" length="43.60" shape="1280.89,1952.51 1272.13,1958.25 1268.38,1966.25 1269.62,1976.50 1275.85,1989.00"/>
    </edge>
    <edge id=":athlone_34" function="internal">
        <lane id=":athlone_34_0" index="0" speed="10.00" length="42.91" shape="1280.89,1952.51 1273.94,1957.52 1270.10,1965.57 1269.38,1976.65 1271.78,1990.76"/>
    </edge>
    <edge id=":athlone_35" function="internal">
        <lane id=":athlone_35_0" index="0" speed="10.00" length="50.10" shape="1280.89,1952.51 1270.82,1958.67 1263.85,1967.64 1259.98,1979.39 1259.21,1993.94"/>
    </edge>
    <edge id=":athlone_36" function="internal">
        <lane id=":athlone_36_0" index="0" speed="10.00" length="34.80" shape="1280.89,1952.51 1274.33,1954.69 1264.06,1957.55 1253.75,1959.80 1247.08,1960.16"/>
    </edge>
    <edge id=":athlone_37" function="internal">
        <lane id=":athlone_37_0" index="0" speed="10.00" length="32.22" shape="1280.89,1952.51 1269.46,1956.67 1260.53,1958.74 1254.10,1958.72 1250.17,1956.62"/>
    </edge>
    <edge id=":athlone_38" function="internal">
        <lane id=":athlone_38_0" index="0" speed="7.38" length="20.99" shape="1280.89,1952.51 1275.19,1953.52 1268.48,1953.11 1263.49,1951.31 1262.97,1948.18"/>
    </edge>
    <edge id=":athlone_39" function="internal">
        <lane id=":athlone_39_0" index="0" speed="7.19" length="20.24" shape="1280.89,1952.51 1275.35,1953.51 1268.80,1953.17 1263.95,1951.52 1263.53,1948.62"/>
    </edge>
    <edge id=":athlone_40" function="internal">
        <lane id=":athlone_40_0" index="0" speed="9.09" length="23.76" shape="1271.59,1951.94 1266.89,1956.50 1265.58,1961.13 1267.64,1965.84 1273.09,1970.63"/>
    </edge>
    <edge id=":athlone_41" function="internal">
        <lane id=":athlone_41_0" index="0" speed="10.00" length="40.98" shape="1271.59,1951.94 1266.83,1957.81 1265.95,1965.95 1268.96,1976.34 1275.85,1989.00"/>
    </edge>
    <edge id=":athlone_42" function="internal">
        <lane id=":athlone_42_0" index="0" speed="10.00" length="41.61" shape="1271.59,1951.94 1267.30,1957.32 1265.38,1965.72 1265.84,1977.13 1268.68,1991.55"/>
    </edge>
    <edge id=":athlone_43" function="internal">
        <lane id=":athlone_43_0" index="0" speed="10.00" length="45.45" shape="1271.59,1951.94 1265.59,1958.26 1261.52,1967.37 1259.39,1979.26 1259.21,1993.94"/>
    </edge>
    <edge id=":athlone_44" function="internal">
        <lane id=":athlone_44_0" index="0" speed="10.00" length="26.59" shape="1271.59,1951.94 1264.33,1956.51 1257.82,1959.40 1252.07,1960.62 1247.08,1960.16"/>
    </edge>
    <edge id=":athlone_45" function="internal">
        <lane id=":athlone_45_0" index="0" speed="10.00" length="23.74" shape="1271.59,1951.94 1264.30,1956.44 1258.30,1958.71 1253.59,1958.77 1250.17,1956.62"/>
    </edge>
    <edge id=":athlone_46" function="internal">
        <lane id=":athlone_46_0" index="0" speed="5.10" length="10.15" shape="1271.59,1951.94 1269.08,1952.45 1266.01,1951.77 1263.71,1950.34 1263.53,1948.62"/>
    </edge>
    <edge id=":athlone_47" function="internal">
        <lane id=":athlone_47_0" index="0" speed="5.85" length="13.74" shape="1271.59,1951.94 1268.03,1954.24 1265.40,1954.37 1263.71,1952.36 1262.97,1948.18"/>
    </edge>
    <edge id=":athlone_48" function="internal">
        <lane id=":athlone_48_0" index="0" speed="10.00" length="24.30" shape="1266.02,1950.63 1263.57,1955.63 1263.93,1960.63 1267.11,1965.63 1273.09,1970.63"/>
    </edge>
    <edge id=":athlone_49" function="internal">
        <lane id=":athlone_49_0" index="0" speed="10.00" length="41.54" shape="1266.02,1950.63 1263.61,1956.95 1264.45,1965.45 1268.53,1976.13 1275.85,1989.00"/>
    </edge>
    <edge id=":athlone_50" function="internal">
        <lane id=":athlone_50_0" index="0" speed="10.00" length="41.74" shape="1266.02,1950.63 1264.01,1956.01 1263.79,1964.62 1265.34,1976.46 1268.68,1991.55"/>
    </edge>
    <edge id=":athlone_51" function="internal">
        <lane id=":athlone_51_0" index="0" speed="10.00" length="43.96" shape="1266.02,1950.63 1263.63,1958.37 1261.38,1971.90 1259.74,1985.62 1259.21,1993.94"/>
    </edge>
    <edge id=":athlone_52" function="internal">
        <lane id=":athlone_52_0" index="0" speed="10.00" length="22.50" shape="1266.02,1950.63 1261.31,1955.80 1256.58,1959.12 1251.84,1960.57 1247.08,1960.16"/>
    </edge>
    <edge id=":athlone_53" function="internal">
        <lane id=":athlone_53_0" index="0" speed="8.40" length="18.23" shape="1266.02,1950.63 1262.50,1953.94 1257.90,1956.60 1253.40,1957.77 1250.17,1956.62"/>
    </edge>
    <edge id=":athlone_54" function="internal">
        <lane id=":athlone_54_0" index="0" speed="3.66" length="4.64" shape="1266.02,1950.63 1265.10,1950.84 1263.92,1950.20 1263.02,1949.16 1262.97,1948.18"/>
    </edge>
    <edge id=":athlone_55" function="internal">
        <lane id=":athlone_55_0" index="0" speed="3.65" length="4.67" shape="1266.02,1950.63 1264.64,1951.06 1263.77,1950.87 1263.40,1950.06 1263.53,1948.62"/>
    </edge>
    <edge id=":athlone_56" function="internal">
        <lane id=":athlone_56_0" index="0" speed="7.60" length="27.06" shape="1251.93,1954.81 1244.60,1947.89 1241.86,1945.89 1243.71,1948.80 1250.17,1956.62"/>
    </edge>
    <edge id=":athlone_57" function="internal">
        <lane id=":athlone_57_0" index="0" speed="7.62" length="14.39" shape="1251.93,1954.81 1254.06,1955.79 1256.61,1955.02 1259.58,1952.48 1262.97,1948.18"/>
    </edge>
    <edge id=":athlone_58" function="internal">
        <lane id=":athlone_58_0" index="0" speed="7.80" length="14.62" shape="1251.93,1954.81 1254.12,1955.84 1256.78,1955.16 1259.92,1952.75 1263.53,1948.62"/>
    </edge>
    <edge id=":athlone_59" function="internal">
        <lane id=":athlone_59_0" index="0" speed="10.00" length="26.43" shape="1251.93,1954.81 1256.17,1958.36 1262.30,1962.98 1268.54,1967.47 1273.09,1970.63"/>
    </edge>
    <edge id=":athlone_60" function="internal">
        <lane id=":athlone_60_0" index="0" speed="10.00" length="41.74" shape="1251.93,1954.81 1256.80,1961.03 1264.22,1971.63 1271.48,1982.37 1275.85,1989.00"/>
    </edge>
    <edge id=":athlone_61" function="internal">
        <lane id=":athlone_61_0" index="0" speed="10.00" length="40.58" shape="1251.93,1954.81 1255.54,1959.97 1260.27,1969.03 1265.01,1980.16 1268.68,1991.55"/>
    </edge>
    <edge id=":athlone_62" function="internal">
        <lane id=":athlone_62_0" index="0" speed="10.00" length="39.96" shape="1251.93,1954.81 1254.55,1961.69 1256.82,1973.81 1258.47,1986.21 1259.21,1993.94"/>
    </edge>
    <edge id=":athlone_63" function="internal">
        <lane id=":athlone_63_0" index="0" speed="4.87" length="8.38" shape="1251.93,1954.81 1252.23,1956.44 1251.02,1958.36 1249.06,1959.84 1247.08,1960.16"/>
    </edge>
    <edge id=":athlone_64" function="internal">
        <lane id=":athlone_64_0" index="0" speed="7.68" length="16.92" shape="1243.37,1974.36 1247.31,1968.80 1249.24,1964.58 1249.17,1961.70 1247.08,1960.16"/>
    </edge>
    <edge id=":athlone_65" function="internal">
        <lane id=":athlone_65_0" index="0" speed="10.00" length="20.04" shape="1243.37,1974.36 1247.75,1968.26 1250.35,1963.26 1251.15,1959.38 1250.17,1956.62"/>
    </edge>
    <edge id=":athlone_66" function="internal">
        <lane id=":athlone_66_0" index="0" speed="10.00" length="32.70" shape="1243.37,1974.36 1262.97,1948.18"/>
    </edge>
    <edge id=":athlone_67" function="internal">
        <lane id=":athlone_67_0" index="0" speed="10.00" length="32.70" shape="1243.37,1974.36 1263.53,1948.62"/>
    </edge>
    <edge id=":athlone_68" function="internal">
        <lane id=":athlone_68_0" index="0" speed="10.00" length="33.61" shape="1243.37,1974.36 1249.84,1968.31 1256.95,1965.67 1264.70,1966.44 1273.09,1970.63"/>
    </edge>
    <edge id=":athlone_69" function="internal">
        <lane id=":athlone_69_0" index="0" speed="10.00" length="43.08" shape="1243.37,1974.36 1251.43,1968.64 1259.60,1970.40 1267.77,1977.79 1275.85,1989.00"/>
    </edge>
    <edge id=":athlone_70" function="internal">
        <lane id=":athlone_70_0" index="0" speed="10.00" length="36.93" shape="1243.37,1974.36 1250.45,1969.76 1256.71,1972.91 1261.85,1981.28 1265.57,1992.33"/>
    </edge>
    <edge id=":athlone_71" function="internal">
        <lane id=":athlone_71_0" index="0" speed="8.78" length="28.59" shape="1243.37,1974.36 1247.99,1973.47 1253.09,1978.54 1257.29,1986.42 1259.21,1993.94"/>
    </edge>
    <edge id=":athlone_72" function="internal">
        <lane id=":athlone_72_0" index="0" speed="10.00" length="38.46" shape="1243.35,1997.94 1246.47,1981.83 1248.13,1970.16 1248.33,1962.94 1247.08,1960.16"/>
    </edge>
    <edge id=":athlone_73" function="internal">
        <lane id=":athlone_73_0" index="0" speed="10.00" length="41.96" shape="1243.35,1997.94 1246.89,1980.51 1249.20,1967.82 1250.30,1959.85 1250.17,1956.62"/>
    </edge>
    <edge id=":athlone_74" function="internal">
        <lane id=":athlone_74_0" index="0" speed="10.00" length="53.55" shape="1243.35,1997.94 1246.88,1986.61 1252.86,1970.93 1258.99,1956.31 1262.97,1948.18"/>
    </edge>
    <edge id=":athlone_75" function="internal">
        <lane id=":athlone_75_0" index="0" speed="10.00" length="51.33" shape="1246.80,1997.07 1249.85,1985.92 1254.79,1970.66 1259.92,1956.48 1263.53,1948.62"/>
    </edge>
    <edge id=":athlone_76" function="internal">
        <lane id=":athlone_76_0" index="0" speed="10.00" length="45.53" shape="1246.80,1997.07 1250.57,1982.94 1255.86,1972.41 1263.19,1967.59 1273.09,1970.63"/>
    </edge>
    <edge id=":athlone_77" function="internal">
        <lane id=":athlone_77_0" index="0" speed="10.00" length="39.85" shape="1246.80,1997.07 1251.52,1986.91 1259.23,1981.60 1267.98,1982.00 1275.85,1989.00"/>
    </edge>
    <edge id=":athlone_78" function="internal">
        <lane id=":athlone_78_0" index="0" speed="8.02" length="26.44" shape="1246.80,1997.07 1250.30,1990.42 1256.03,1986.84 1261.84,1987.19 1265.57,1992.33"/>
    </edge>
    <edge id=":athlone_79" function="internal">
        <lane id=":athlone_79_0" index="0" speed="6.60" length="18.68" shape="1246.80,1997.07 1248.73,1991.63 1251.44,1989.30 1254.93,1990.07 1259.21,1993.94"/>
    </edge>
    <edge id=":belfast_0" function="internal">
        <lane id=":belfast_0_0" index="0" speed="10.00" length="34.35" shape="2496.93,3332.04 2493.94,3338.43 2485.97,3343.55 2476.38,3346.18 2468.57,3345.13"/>
    </edge>
    <edge id=":belfast_1" function="internal">
        <lane id=":belfast_1_0" index="0" speed="10.00" length="34.26" shape="2496.93,3332.04 2493.95,3338.41 2485.98,3343.48 2476.41,3346.05 2468.62,3344.96"/>
    </edge>
    <edge id=":belfast_2" function="internal">
        <lane id=":belfast_2_0" index="0" speed="10.00" length="39.74" shape="2496.93,3332.04 2495.27,3342.33 2488.94,3347.79 2479.57,3348.42 2468.80,3344.22"/>
    </edge>
    <edge id=":belfast_3" function="internal">
        <lane id=":belfast_3_0" index="0" speed="9.05" length="30.11" shape="2496.93,3332.04 2494.21,3337.51 2486.91,3340.61 2478.23,3340.97 2471.37,3338.24"/>
    </edge>
    <edge id=":belfast_4" function="internal">
        <lane id=":belfast_4_0" index="0" speed="7.49" length="23.22" shape="2496.93,3332.04 2494.53,3335.65 2488.40,3336.69 2481.54,3335.40 2476.97,3332.02"/>
    </edge>
    <edge id=":belfast_5" function="internal">
        <lane id=":belfast_5_0" index="0" speed="7.03" length="21.19" shape="2496.93,3332.04 2495.02,3333.94 2490.08,3331.67 2484.59,3327.18 2481.05,3322.38"/>
    </edge>
    <edge id=":belfast_6" function="internal">
        <lane id=":belfast_6_0" index="0" speed="6.28" length="17.46" shape="2496.93,3332.04 2495.74,3333.07 2492.55,3329.89 2489.04,3324.80 2486.90,3320.06"/>
    </edge>
    <edge id=":belfast_7" function="internal">
        <lane id=":belfast_7_0" index="0" speed="6.27" length="17.40" shape="2496.93,3332.04 2495.76,3333.05 2492.60,3329.86 2489.13,3324.75 2487.01,3320.01"/>
    </edge>
    <edge id=":belfast_8" function="internal">