<?xml version="1.0" encoding="UTF-8"?>

<!-- generated on 2024-09-30 20:49:06 by Eclipse SUMO netconvert Version 1.18.0
<configuration xmlns:xsi="http://www.w3.org/2001/XMLSchema-instance" xsi:noNamespaceSchemaLocation="http://sumo.dlr.de/xsd/netconvertConfiguration.xsd">

    <input>
        <node-files value="nod.xml"/>
        <edge-files value="edge_xmls/03218.xml"/>
    </input>

    <output>
        <output-file value="networks/03218.net.xml"/>
    </output>

</configuration>
-->

<net version="1.16" junctionCornerDetail="5" limitTurnSpeed="5.50" xmlns:xsi="http://www.w3.org/2001/XMLSchema-instance" xsi:noNamespaceSchemaLocation="http://sumo.dlr.de/xsd/net_file.xsd">

    <location netOffset="-682.00,4368.00" convBoundary="0.00,0.00,2498.00,3881.00" origBoundary="682.00,-4368.00,3180.00,-487.00" projParameter="!"/>

    <edge id=":antrim_0" function="internal">
        <lane id=":antrim_0_0" index="0" speed="10.00" length="39.36" shape="2295.24,3485.25 2289.45,3486.98 2281.17,3486.65 2270.40,3484.25 2257.13,3479.80"/>
    </edge>
    <edge id=":antrim_1" function="internal">
        <lane id=":antrim_1_0" index="0" speed="10.00" length="38.80" shape="2295.24,3485.25 2289.50,3486.81 2281.47,3485.90 2271.14,3482.52 2258.52,3476.68"/>
    </edge>
    <edge id=":antrim_2" function="internal">
        <lane id=":antrim_2_0" index="0" speed="10.00" length="38.76" shape="2295.24,3485.25 2289.51,3486.80 2281.50,3485.84 2271.21,3482.39 2258.64,3476.44"/>
    </edge>
    <edge id=":antrim_3" function="internal">
        <lane id=":antrim_3_0" index="0" speed="10.00" length="58.81" shape="2295.24,3485.25 2288.96,3485.10 2279.75,3478.79 2267.61,3466.33 2252.55,3447.69"/>
    </edge>
    <edge id=":antrim_4" function="internal">
        <lane id=":antrim_4_0" index="0" speed="10.00" length="55.90" shape="2295.24,3485.25 2289.17,3483.92 2283.91,3473.66 2279.35,3457.02 2275.39,3436.49"/>
    </edge>
    <edge id=":antrim_5" function="internal">
        <lane id=":antrim_5_0" index="0" speed="10.00" length="33.24" shape="2295.24,3485.25 2291.72,3482.91 2288.41,3474.41 2286.00,3463.72 2285.14,3454.83"/>
    </edge>
    <edge id=":antrim_6" function="internal">
        <lane id=":antrim_6_0" index="0" speed="3.65" length="4.67" shape="2295.24,3485.25 2293.80,3485.19 2293.04,3484.72 2292.96,3483.83 2293.57,3482.52"/>
    </edge>
    <edge id=":antrim_7" function="internal">
        <lane id=":antrim_7_0" index="0" speed="9.66" length="30.33" shape="2288.34,3454.72 2288.41,3468.23 2289.31,3477.37 2291.03,3482.13 2293.57,3482.52"/>
    </edge>
    <edge id=":antrim_8" function="internal">
        <lane id=":antrim_8_0" index="0" speed="10.00" length="42.21" shape="2288.34,3454.72 2284.55,3462.83 2275.78,3471.77 2265.49,3478.45 2257.13,3479.80"/>
    </edge>
    <edge id=":antrim_9" function="internal">
        <lane id=":antrim_9_0" index="0" speed="10.00" length="39.54" shape="2288.34,3454.72 2284.71,3462.47 2276.32,3470.55 2266.49,3476.21 2258.52,3476.68"/>
    </edge>
    <edge id=":antrim_10" function="internal">
        <lane id=":antrim_10_0" index="0" speed="10.00" length="39.32" shape="2288.34,3454.72 2284.72,3462.44 2276.37,3470.46 2266.58,3476.04 2258.64,3476.44"/>
    </edge>
    <edge id=":antrim_11" function="internal">
        <lane id=":antrim_11_0" index="0" speed="10.00" length="39.40" shape="2288.34,3454.72 2283.42,3458.36 2272.39,3457.19 2260.38,3453.03 2252.55,3447.69"/>
    </edge>
    <edge id=":antrim_12" function="internal">
        <lane id=":antrim_12_0" index="0" speed="7.45" length="25.00" shape="2288.34,3454.72 2286.42,3456.04 2282.28,3451.15 2277.92,3443.49 2275.39,3436.49"/>
    </edge>
    <edge id=":antrim_13" function="internal">
        <lane id=":antrim_13_0" index="0" speed="3.65" length="4.68" shape="2288.34,3454.72 2287.58,3455.95 2286.79,3456.37 2285.98,3456.00 2285.14,3454.83"/>
    </edge>
    <edge id=":antrim_14" function="internal">
        <lane id=":antrim_14_0" index="0" speed="9.80" length="30.59" shape="2286.95,3454.78 2287.59,3468.29 2288.90,3477.42 2290.90,3482.16 2293.57,3482.52"/>
    </edge>
    <edge id=":antrim_15" function="internal">
        <lane id=":antrim_15_0" index="0" speed="10.00" length="41.21" shape="2286.95,3454.78 2283.53,3462.88 2275.22,3471.80 2265.32,3478.46 2257.13,3479.80"/>
    </edge>
    <edge id=":antrim_16" function="internal">
        <lane id=":antrim_16_0" index="0" speed="10.00" length="38.52" shape="2286.95,3454.78 2283.69,3462.52 2275.76,3470.58 2266.32,3476.22 2258.52,3476.68"/>
    </edge>
    <edge id=":antrim_17" function="internal">
        <lane id=":antrim_17_0" index="0" speed="10.00" length="38.30" shape="2286.95,3454.78 2283.70,3462.49 2275.81,3470.49 2266.41,3476.05 2258.64,3476.44"/>
    </edge>
    <edge id=":antrim_18" function="internal">
        <lane id=":antrim_18_0" index="0" speed="9.89" length="38.15" shape="2286.95,3454.78 2282.40,3458.42 2271.83,3457.22 2260.22,3453.04 2252.55,3447.69"/>
    </edge>
    <edge id=":antrim_19" function="internal">
        <lane id=":antrim_19_0" index="0" speed="7.27" length="24.01" shape="2286.95,3454.78 2285.37,3455.96 2281.68,3451.00 2277.73,3443.36 2275.39,3436.49"/>
    </edge>
    <edge id=":antrim_20" function="internal">
        <lane id=":antrim_20_0" index="0" speed="9.53" length="44.58" shape="2286.95,3454.78 2286.51,3438.09 2286.07,3432.54 2285.61,3438.12 2285.14,3454.83"/>
    </edge>
    <edge id=":antrim_21" function="internal">
        <lane id=":antrim_21_0" index="0" speed="9.91" length="30.81" shape="2285.97,3454.82 2287.01,3468.33 2288.62,3477.45 2290.81,3482.18 2293.57,3482.52"/>
    </edge>
    <edge id=":antrim_22" function="internal">
        <lane id=":antrim_22_0" index="0" speed="10.00" length="47.95" shape="2285.97,3454.82 2284.68,3468.71 2279.36,3478.06 2270.14,3482.03 2257.13,3479.80"/>
    </edge>
    <edge id=":antrim_23" function="internal">
        <lane id=":antrim_23_0" index="0" speed="10.00" length="37.82" shape="2285.97,3454.82 2282.97,3462.55 2275.37,3470.60 2266.20,3476.22 2258.52,3476.68"/>
    </edge>
    <edge id=":antrim_24" function="internal">
        <lane id=":antrim_24_0" index="0" speed="10.00" length="37.60" shape="2285.97,3454.82 2282.99,3462.53 2275.42,3470.51 2266.29,3476.05 2258.64,3476.44"/>
    </edge>
    <edge id=":antrim_25" function="internal">
        <lane id=":antrim_25_0" index="0" speed="9.72" length="37.28" shape="2285.97,3454.82 2281.68,3458.45 2271.44,3457.24 2260.10,3453.04 2252.55,3447.69"/>
    </edge>
    <edge id=":antrim_26" function="internal">
        <lane id=":antrim_26_0" index="0" speed="7.14" length="23.36" shape="2285.97,3454.82 2284.63,3455.91 2281.25,3450.91 2277.59,3443.28 2275.39,3436.49"/>
    </edge>
    <edge id=":antrim_27" function="internal">
        <lane id=":antrim_27_0" index="0" speed="5.30" length="12.10" shape="2285.97,3454.82 2285.70,3450.30 2285.47,3448.80 2285.28,3450.31 2285.14,3454.83"/>
    </edge>
    <edge id=":antrim_28" function="internal">
        <lane id=":antrim_28_0" index="0" speed="8.01" length="29.39" shape="2279.36,3435.81 2281.76,3450.12 2283.52,3458.06 2284.65,3459.63 2285.14,3454.83"/>
    </edge>
    <edge id=":antrim_29" function="internal">
        <lane id=":antrim_29_0" index="0" speed="10.00" length="50.29" shape="2279.36,3435.81 2283.19,3457.70 2286.84,3472.78 2290.30,3481.05 2293.57,3482.52"/>
    </edge>
    <edge id=":antrim_30" function="internal">
        <lane id=":antrim_30_0" index="0" speed="10.00" length="51.23" shape="2279.36,3435.81 2277.63,3446.83 2271.88,3462.28 2264.30,3475.49 2257.13,3479.80"/>
    </edge>
    <edge id=":antrim_31" function="internal">
        <lane id=":antrim_31_0" index="0" speed="10.00" length="48.03" shape="2279.36,3435.81 2277.79,3446.48 2272.42,3461.06 2265.30,3473.24 2258.52,3476.68"/>
    </edge>
    <edge id=":antrim_32" function="internal">
        <lane id=":antrim_32_0" index="0" speed="10.00" length="47.78" shape="2279.36,3435.81 2277.81,3446.45 2272.46,3460.97 2265.39,3473.07 2258.64,3476.44"/>
    </edge>
    <edge id=":antrim_33" function="internal">
        <lane id=":antrim_33_0" index="0" speed="9.83" length="39.98" shape="2279.36,3435.81 2277.61,3446.29 2270.59,3452.65 2261.25,3453.57 2252.55,3447.69"/>
    </edge>
    <edge id=":antrim_34" function="internal">
        <lane id=":antrim_34_0" index="0" speed="3.48" length="4.03" shape="2279.36,3435.81 2275.39,3436.49"/>
    </edge>
    <edge id=":antrim_35" function="internal">
        <lane id=":antrim_35_0" index="0" speed="8.19" length="30.63" shape="2278.54,3435.95 2281.29,3450.75 2283.30,3458.83 2284.58,3460.19 2285.14,3454.83"/>
    </edge>
    <edge id=":antrim_36" function="internal">
        <lane id=":antrim_36_0" index="0" speed="10.00" length="50.40" shape="2278.54,3435.95 2282.72,3457.78 2286.62,3472.82 2290.24,3481.07 2293.57,3482.52"/>
    </edge>
    <edge id=":antrim_37" function="internal">
        <lane id=":antrim_37_0" index="0" speed="10.00" length="62.21" shape="2278.54,3435.95 2280.69,3455.42 2279.06,3471.49 2271.82,3480.75 2257.13,3479.80"/>
    </edge>
    <edge id=":antrim_38" function="internal">
        <lane id=":antrim_38_0" index="0" speed="10.00" length="47.57" shape="2278.54,3435.95 2277.16,3446.58 2272.06,3461.12 2265.19,3473.26 2258.52,3476.68"/>
    </edge>
    <edge id=":antrim_39" function="internal">
        <lane id=":antrim_39_0" index="0" speed="10.00" length="47.32" shape="2278.54,3435.95 2277.17,3446.56 2272.11,3461.03 2265.28,3473.09 2258.64,3476.44"/>
    </edge>
    <edge id=":antrim_40" function="internal">
        <lane id=":antrim_40_0" index="0" speed="8.91" length="32.72" shape="2278.54,3435.95 2275.87,3442.48 2268.13,3447.76 2259.09,3450.08 2252.55,3447.69"/>
    </edge>
    <edge id=":antrim_41" function="internal">
        <lane id=":antrim_41_0" index="0" speed="3.65" length="4.67" shape="2278.54,3435.95 2277.96,3437.27 2277.24,3437.80 2276.38,3437.54 2275.39,3436.49"/>
    </edge>
    <edge id=":antrim_42" function="internal">
        <lane id=":antrim_42_0" index="0" speed="7.65" length="26.18" shape="2269.50,3436.53 2273.64,3445.65 2276.00,3448.68 2276.59,3445.63 2275.39,3436.49"/>
    </edge>
    <edge id=":antrim_43" function="internal">
        <lane id=":antrim_43_0" index="0" speed="9.06" length="34.87" shape="2269.50,3436.53 2276.19,3451.49 2281.03,3459.53 2284.01,3460.64 2285.14,3454.83"/>
    </edge>
    <edge id=":antrim_44" function="internal">
        <lane id=":antrim_44_0" index="0" speed="10.00" length="52.47" shape="2269.50,3436.53 2278.52,3457.57 2285.54,3472.25 2290.55,3480.57 2293.57,3482.52"/>
    </edge>
    <edge id=":antrim_45" function="internal">
        <lane id=":antrim_45_0" index="0" speed="10.00" length="56.24" shape="2266.55,3437.75 2272.08,3454.84 2273.66,3470.24 2269.33,3479.91 2257.13,3479.80"/>
    </edge>
    <edge id=":antrim_46" function="internal">
        <lane id=":antrim_46_0" index="0" speed="10.00" length="42.26" shape="2266.55,3437.75 2267.84,3447.87 2266.77,3461.82 2263.58,3473.46 2258.52,3476.68"/>
    </edge>
    <edge id=":antrim_47" function="internal">
        <lane id=":antrim_47_0" index="0" speed="10.00" length="42.02" shape="2266.55,3437.75 2267.85,3447.84 2266.82,3461.73 2263.67,3473.29 2258.64,3476.44"/>
    </edge>
    <edge id=":antrim_48" function="internal">
        <lane id=":antrim_48_0" index="0" speed="7.39" length="23.90" shape="2266.55,3437.75 2266.71,3444.09 2263.08,3448.88 2257.68,3450.58 2252.55,3447.69"/>
    </edge>
    <edge id=":antrim_49" function="internal">
        <lane id=":antrim_49_0" index="0" speed="10.00" length="45.74" shape="2262.07,3450.63 2270.81,3461.49 2275.95,3462.75 2277.47,3454.42 2275.39,3436.49"/>
    </edge>
    <edge id=":antrim_50" function="internal">
        <lane id=":antrim_50_0" index="0" speed="10.00" length="40.82" shape="2262.07,3450.63 2271.92,3463.38 2279.05,3468.33 2283.46,3465.48 2285.14,3454.83"/>
    </edge>
    <edge id=":antrim_51" function="internal">
        <lane id=":antrim_51_0" index="0" speed="10.00" length="46.29" shape="2262.07,3450.63 2273.19,3466.20 2282.15,3476.71 2288.94,3482.15 2293.57,3482.52"/>
    </edge>
    <edge id=":antrim_52" function="internal">
        <lane id=":antrim_52_0" index="0" speed="9.22" length="33.14" shape="2262.07,3450.63 2264.56,3458.74 2264.58,3469.16 2262.11,3477.60 2257.13,3479.80"/>
    </edge>
    <edge id=":antrim_53" function="internal">
        <lane id=":antrim_53_0" index="0" speed="8.61" length="30.12" shape="2262.07,3450.63 2264.67,3458.33 2265.05,3467.88 2263.05,3475.32 2258.52,3476.68"/>
    </edge>
    <edge id=":antrim_54" function="internal">
        <lane id=":antrim_54_0" index="0" speed="8.55" length="29.83" shape="2262.07,3450.63 2264.66,3458.27 2265.05,3467.75 2263.10,3475.12 2258.64,3476.44"/>
    </edge>
    <edge id=":antrim_55" function="internal">
        <lane id=":antrim_55_0" index="0" speed="4.88" length="9.96" shape="2262.07,3450.63 2252.55,3447.69"/>
    </edge>
    <edge id=":antrim_56" function="internal">
        <lane id=":antrim_56_0" index="0" speed="10.00" length="52.47" shape="2254.24,3446.41 2266.48,3459.55 2274.09,3462.28 2277.06,3454.59 2275.39,3436.49"/>
    </edge>
    <edge id=":antrim_57" function="internal">
        <lane id=":antrim_57_0" index="0" speed="10.00" length="48.47" shape="2254.24,3446.41 2267.52,3461.23 2277.09,3467.57 2282.96,3465.44 2285.14,3454.83"/>
    </edge>
    <edge id=":antrim_58" function="internal">
        <lane id=":antrim_58_0" index="0" speed="10.00" length="54.66" shape="2254.24,3446.41 2268.75,3463.85 2280.14,3475.68 2288.42,3481.90 2293.57,3482.52"/>
    </edge>
    <edge id=":antrim_59" function="internal">
        <lane id=":antrim_59_0" index="0" speed="10.00" length="44.65" shape="2254.24,3446.41 2262.02,3458.70 2266.56,3471.04 2265.65,3479.41 2257.13,3479.80"/>
    </edge>
    <edge id=":antrim_60" function="internal">
        <lane id=":antrim_60_0" index="0" speed="8.93" length="33.64" shape="2254.24,3446.41 2258.35,3454.65 2261.41,3465.68 2261.96,3474.64 2258.52,3476.68"/>
    </edge>
    <edge id=":antrim_61" function="internal">
        <lane id=":antrim_61_0" index="0" speed="8.89" length="33.43" shape="2254.24,3446.41 2258.36,3454.62 2261.46,3465.58 2262.05,3474.47 2258.64,3476.44"/>
    </edge>
    <edge id=":antrim_62" function="internal">
        <lane id=":antrim_62_0" index="0" speed="3.22" length="3.10" shape="2254.24,3446.41 2254.30,3447.36 2254.04,3447.90 2253.45,3448.01 2252.55,3447.69"/>
    </edge>
    <edge id=":antrim_63" function="internal">
        <lane id=":antrim_63_0" index="0" speed="8.28" length="25.55" shape="2266.50,3493.89 2271.45,3491.14 2271.53,3487.88 2266.76,3484.10 2257.13,3479.80"/>
    </edge>
    <edge id=":antrim_64" function="internal">
        <lane id=":antrim_64_0" index="0" speed="8.75" length="27.27" shape="2266.50,3493.89 2271.78,3490.86 2272.21,3486.99 2267.79,3482.26 2258.52,3476.68"/>
    </edge>
    <edge id=":antrim_65" function="internal">
        <lane id=":antrim_65_0" index="0" speed="8.78" length="27.40" shape="2266.50,3493.89 2271.80,3490.84 2272.26,3486.92 2267.87,3482.12 2258.64,3476.44"/>
    </edge>
    <edge id=":antrim_66" function="internal">
        <lane id=":antrim_66_0" index="0" speed="10.00" length="53.91" shape="2266.50,3493.89 2271.96,3488.87 2271.45,3479.49 2264.98,3465.77 2252.55,3447.69"/>
    </edge>
    <edge id=":antrim_67" function="internal">
        <lane id=":antrim_67_0" index="0" speed="10.00" length="61.63" shape="2266.50,3493.89 2273.69,3488.06 2277.57,3476.56 2278.14,3459.37 2275.39,3436.49"/>
    </edge>
    <edge id=":antrim_68" function="internal">
        <lane id=":antrim_68_0" index="0" speed="10.00" length="45.98" shape="2266.50,3493.89 2274.39,3489.18 2280.12,3481.10 2283.70,3469.65 2285.14,3454.83"/>
    </edge>
    <edge id=":antrim_69" function="internal">
        <lane id=":antrim_69_0" index="0" speed="10.00" length="29.38" shape="2266.50,3493.89 2272.13,3491.80 2280.21,3488.58 2288.21,3485.17 2293.57,3482.52"/>
    </edge>
    <edge id=":antrim_70" function="internal">
        <lane id=":antrim_70_0" index="0" speed="9.13" length="28.63" shape="2268.15,3497.52 2272.76,3493.33 2272.46,3488.98 2267.25,3484.47 2257.13,3479.80"/>
    </edge>
    <edge id=":antrim_71" function="internal">
        <lane id=":antrim_71_0" index="0" speed="9.63" length="30.18" shape="2268.15,3497.52 2272.99,3493.05 2273.00,3488.09 2268.17,3482.63 2258.52,3476.68"/>
    </edge>
    <edge id=":antrim_72" function="internal">
        <lane id=":antrim_72_0" index="0" speed="9.67" length="30.30" shape="2268.15,3497.52 2273.01,3493.03 2273.04,3488.02 2268.26,3482.49 2258.64,3476.44"/>
    </edge>
    <edge id=":antrim_73" function="internal">
        <lane id=":antrim_73_0" index="0" speed="10.00" length="56.91" shape="2268.15,3497.52 2272.98,3491.03 2271.99,3480.57 2265.18,3466.12 2252.55,3447.69"/>
    </edge>
    <edge id=":antrim_74" function="internal">
        <lane id=":antrim_74_0" index="0" speed="10.00" length="64.10" shape="2268.15,3497.52 2274.63,3490.20 2278.00,3477.59 2278.25,3459.69 2275.39,3436.49"/>
    </edge>
    <edge id=":antrim_75" function="internal">
        <lane id=":antrim_75_0" index="0" speed="10.00" length="47.83" shape="2268.15,3497.52 2275.31,3491.31 2280.53,3482.12 2283.81,3469.96 2285.14,3454.83"/>
    </edge>
    <edge id=":antrim_76" function="internal">
        <lane id=":antrim_76_0" index="0" speed="10.00" length="29.52" shape="2268.15,3497.52 2293.57,3482.52"/>
    </edge>
    <edge id=":athlone_0" function="internal">
        <lane id=":athlone_0_0" index="0" speed="6.32" length="16.98" shape="1255.81,1989.96 1255.25,1983.77 1254.37,1981.65 1253.17,1983.58 1251.64,1989.58"/>
    </edge>
    <edge id=":athlone_1" function="internal">
        <lane id=":athlone_1_0" index="0" speed="10.00" length="40.92" shape="1255.81,1989.96 1254.48,1982.24 1251.55,1969.84 1248.06,1957.66 1245.05,1950.60"/>
    </edge>
    <edge id=":athlone_2" function="internal">
        <lane id=":athlone_2_0" index="0" speed="10.00" length="43.79" shape="1255.81,1989.96 1255.07,1982.40 1253.76,1969.89 1252.67,1956.45 1252.60,1946.10"/>
        <lane id=":athlone_2_1" index="1" speed="10.00" length="43.79" shape="1255.81,1989.96 1255.57,1982.45 1255.35,1970.04 1255.35,1956.71 1255.79,1946.41"/>
    </edge>
    <edge id=":athlone_4" function="internal">
        <lane id=":athlone_4_0" index="0" speed="10.00" length="47.37" shape="1255.81,1989.96 1256.39,1981.17 1258.05,1966.35 1260.13,1951.61 1261.95,1943.04"/>
    </edge>
    <edge id=":athlone_5" function="internal">
        <lane id=":athlone_5_0" index="0" speed="10.00" length="46.07" shape="1255.81,1989.96 1256.81,1981.41 1259.46,1967.15 1262.70,1953.06 1265.48,1945.03"/>
    </edge>
    <edge id=":athlone_6" function="internal">
        <lane id=":athlone_6_0" index="0" speed="10.00" length="36.33" shape="1255.81,1989.96 1255.76,1976.59 1257.08,1966.48 1259.77,1959.64 1263.82,1956.06"/>
    </edge>
    <edge id=":athlone_7" function="internal">
        <lane id=":athlone_7_0" index="0" speed="8.77" length="30.18" shape="1255.81,1989.96 1255.59,1979.37 1256.23,1969.86 1258.24,1964.54 1262.13,1966.54"/>
    </edge>
    <edge id=":athlone_8" function="internal">
        <lane id=":athlone_8_0" index="0" speed="8.12" length="26.10" shape="1255.81,1989.96 1256.04,1982.17 1257.22,1973.23 1259.20,1966.86 1261.82,1966.76"/>
    </edge>
    <edge id=":athlone_9" function="internal">
        <lane id=":athlone_9_0" index="0" speed="8.07" length="26.01" shape="1255.81,1989.96 1256.03,1982.18 1257.18,1973.23 1259.10,1966.88 1261.67,1966.87"/>
    </edge>
    <edge id=":athlone_10" function="internal">
        <lane id=":athlone_10_0" index="0" speed="7.97" length="25.86" shape="1255.81,1989.96 1256.01,1982.20 1257.08,1973.22 1258.92,1966.90 1261.38,1967.08"/>
    </edge>
    <edge id=":athlone_11" function="internal">
        <lane id=":athlone_11_0" index="0" speed="6.25" length="9.81" shape="1265.04,1959.02 1262.41,1960.49 1261.05,1962.24 1260.95,1964.25 1262.13,1966.54"/>
    </edge>
    <edge id=":athlone_12" function="internal">
        <lane id=":athlone_12_0" index="0" speed="6.40" length="10.06" shape="1265.04,1959.02 1262.36,1960.52 1260.93,1962.31 1260.75,1964.39 1261.82,1966.76"/>
    </edge>
    <edge id=":athlone_13" function="internal">
        <lane id=":athlone_13_0" index="0" speed="6.48" length="10.18" shape="1265.04,1959.02 1262.33,1960.53 1260.87,1962.35 1260.65,1964.46 1261.67,1966.87"/>
    </edge>
    <edge id=":athlone_14" function="internal">
        <lane id=":athlone_14_0" index="0" speed="6.64" length="10.41" shape="1265.04,1959.02 1262.28,1960.56 1260.76,1962.42 1260.46,1964.59 1261.38,1967.08"/>
    </edge>
    <edge id=":athlone_15" function="internal">
        <lane id=":athlone_15_0" index="0" speed="10.00" length="34.13" shape="1265.04,1959.02 1261.33,1962.10 1257.87,1968.23 1254.64,1977.39 1251.64,1989.58"/>
    </edge>
    <edge id=":athlone_16" function="internal">
        <lane id=":athlone_16_0" index="0" speed="10.00" length="23.21" shape="1265.04,1959.02 1260.22,1959.95 1255.29,1958.87 1250.23,1955.75 1245.05,1950.60"/>
    </edge>
    <edge id=":athlone_17" function="internal">
        <lane id=":athlone_17_0" index="0" speed="8.16" length="20.27" shape="1265.04,1959.02 1260.38,1959.91 1257.28,1958.10 1255.75,1953.60 1255.79,1946.41"/>
    </edge>
    <edge id=":athlone_18" function="internal">
        <lane id=":athlone_18_0" index="0" speed="7.75" length="21.31" shape="1265.04,1959.02 1260.53,1959.14 1259.02,1955.43 1259.76,1949.53 1261.95,1943.04"/>
    </edge>
    <edge id=":athlone_19" function="internal">
        <lane id=":athlone_19_0" index="0" speed="6.49" length="15.91" shape="1265.04,1959.02 1262.90,1958.11 1262.62,1954.11 1263.66,1949.06 1265.48,1945.03"/>
    </edge>
    <edge id=":athlone_20" function="internal">
        <lane id=":athlone_20_0" index="0" speed="3.65" length="4.67" shape="1265.04,1959.02 1263.62,1958.73 1262.95,1958.14 1263.02,1957.25 1263.82,1956.06"/>
    </edge>
    <edge id=":athlone_21" function="internal">
        <lane id=":athlone_21_0" index="0" speed="5.76" length="10.41" shape="1246.41,1949.44 1248.81,1951.19 1250.65,1951.22 1251.91,1949.52 1252.60,1946.10"/>
    </edge>
    <edge id=":athlone_22" function="internal">
        <lane id=":athlone_22_0" index="0" speed="8.58" length="21.11" shape="1246.41,1949.44 1250.77,1952.34 1254.81,1952.24 1258.54,1949.14 1261.95,1943.04"/>
    </edge>
    <edge id=":athlone_23" function="internal">
        <lane id=":athlone_23_0" index="0" speed="9.55" length="23.03" shape="1246.41,1949.44 1251.12,1952.58 1255.86,1952.90 1260.65,1950.38 1265.48,1945.03"/>
    </edge>
    <edge id=":athlone_24" function="internal">
        <lane id=":athlone_24_0" index="0" speed="10.00" length="19.66" shape="1246.41,1949.44 1251.23,1953.48 1255.74,1955.94 1259.94,1956.79 1263.82,1956.06"/>
    </edge>
    <edge id=":athlone_25" function="internal">
        <lane id=":athlone_25_0" index="0" speed="10.00" length="23.23" shape="1246.41,1949.44 1249.96,1953.02 1254.49,1957.79 1258.91,1962.67 1262.13,1966.54"/>
    </edge>
    <edge id=":athlone_26" function="internal">
        <lane id=":athlone_26_0" index="0" speed="10.00" length="23.20" shape="1246.41,1949.44 1249.94,1953.04 1254.41,1957.86 1258.73,1962.80 1261.82,1966.76"/>
    </edge>
    <edge id=":athlone_27" function="internal">
        <lane id=":athlone_27_0" index="0" speed="10.00" length="23.18" shape="1246.41,1949.44 1249.93,1953.04 1254.37,1957.89 1258.65,1962.86 1261.67,1966.87"/>
    </edge>
    <edge id=":athlone_28" function="internal">
        <lane id=":athlone_28_0" index="0" speed="10.00" length="23.17" shape="1246.41,1949.44 1249.91,1953.06 1254.30,1957.95 1258.49,1962.99 1261.38,1967.08"/>
    </edge>
    <edge id=":athlone_29" function="internal">
        <lane id=":athlone_29_0" index="0" speed="10.00" length="42.02" shape="1246.41,1949.44 1250.99,1956.08 1253.39,1964.99 1253.60,1976.15 1251.64,1989.58"/>
    </edge>
    <edge id=":athlone_30" function="internal">
        <lane id=":athlone_30_0" index="0" speed="6.51" length="19.23" shape="1246.41,1949.44 1241.17,1944.50 1239.20,1943.04 1240.49,1945.08 1245.05,1950.60"/>
    </edge>
    <edge id=":athlone_31" function="internal">
        <lane id=":athlone_31_0" index="0" speed="10.00" length="39.01" shape="1243.97,1988.02 1247.86,1975.67 1249.34,1965.31 1248.40,1956.96 1245.05,1950.60"/>
    </edge>
    <edge id=":athlone_32" function="internal">
        <lane id=":athlone_32_0" index="0" speed="10.00" length="42.84" shape="1243.97,1988.02 1245.93,1980.90 1248.60,1969.04 1251.10,1956.20 1252.60,1946.10"/>
    </edge>
    <edge id=":athlone_33" function="internal">
        <lane id=":athlone_33_0" index="0" speed="10.00" length="48.45" shape="1243.97,1988.02 1261.95,1943.04"/>
    </edge>
    <edge id=":athlone_34" function="internal">
        <lane id=":athlone_34_0" index="0" speed="10.00" length="48.09" shape="1243.97,1988.02 1247.67,1979.91 1254.30,1966.30 1261.14,1952.80 1265.48,1945.03"/>
    </edge>
    <edge id=":athlone_35" function="internal">
        <lane id=":athlone_35_0" index="0" speed="10.00" length="38.28" shape="1243.97,1988.02 1249.25,1975.44 1254.32,1965.91 1259.18,1959.45 1263.82,1956.06"/>
    </edge>
    <edge id=":athlone_36" function="internal">
        <lane id=":athlone_36_0" index="0" speed="9.53" length="29.45" shape="1243.97,1988.02 1247.70,1980.58 1253.07,1972.60 1258.42,1966.96 1262.13,1966.54"/>
    </edge>
    <edge id=":athlone_37" function="internal">
        <lane id=":athlone_37_0" index="0" speed="9.37" length="29.14" shape="1243.97,1988.02 1247.67,1980.58 1252.96,1972.62 1258.21,1967.05 1261.82,1966.76"/>
    </edge>
    <edge id=":athlone_38" function="internal">
        <lane id=":athlone_38_0" index="0" speed="9.30" length="29.00" shape="1243.97,1988.02 1247.66,1980.58 1252.91,1972.63 1258.12,1967.09 1261.67,1966.87"/>
    </edge>
    <edge id=":athlone_39" function="internal">
        <lane id=":athlone_39_0" index="0" speed="9.58" length="31.59" shape="1243.97,1988.02 1248.30,1977.64 1252.92,1969.19 1257.42,1964.93 1261.38,1967.08"/>
    </edge>
    <edge id=":athlone_40" function="internal">
        <lane id=":athlone_40_0" index="0" speed="5.25" length="11.44" shape="1243.97,1988.02 1246.47,1985.54 1248.58,1984.97 1250.31,1986.31 1251.64,1989.58"/>
    </edge>
    <edge id=":belfast_0" function="internal">
        <lane id=":belfast_0_0" index="0" speed="10.00" length="52.53" shape="2491.33,3324.91 2493.82,3341.34 2492.78,3354.79 2488.23,3365.25 2480.15,3372.73"/>
    </edge>
    <edge id=":belfast_1" function="internal">
        <lane id=":belfast_1_0" index="0" speed="9.05" length="32.18" shape="2491.33,3324.91 2488.80,3330.32 2480.73,3333.35 2471.05,3333.63 2463.67,3330.81"/>
    </edge>
    <edge id=":belfast_2" function="internal">
        <lane id=":belfast_2_0" index="0" speed="7.69" length="24.70" shape="2491.33,3324.91 2489.28,3328.54 2482.86,3329.37 2475.34,3327.83 2470.01,3324.34"/>
    </edge>
    <edge id=":belfast_3" function="internal">
        <lane id=":belfast_3_0" index="0" speed="4.50" length="8.01" shape="2491.33,3324.91 2490.60,3326.18 2488.41,3326.69 2485.99,3326.37 2484.55,3325.21"/>
    </edge>
    <edge id=":belfast_4" function="internal">
        <lane id=":belfast_4_0" index="0" speed="3.72" length="4.93" shape="2491.33,3324.91 2490.28,3326.00 2489.37,3326.26 2488.62,3325.70 2488.02,3324.30"/>
    </edge>
    <edge id=":belfast_5" function="internal">
        <lane id=":belfast_5_0" index="0" speed="4.13" length="6.39" shape="2487.36,3324.42 2488.19,3326.68 2488.57,3327.41 2488.51,3326.62 2488.02,3324.30"/>
    </edge>
    <edge id=":belfast_6" function="internal">
        <lane id=":belfast_6_0" index="0" speed="10.00" length="52.88" shape="2487.36,3324.42 2491.63,3341.04 2491.85,3354.64 2488.02,3365.20 2480.15,3372.73"/>
    </edge>
    <edge id=":belfast_7" function="internal">
        <lane id=":belfast_7_0" index="0" speed="9.02" length="33.31" shape="2487.36,3324.42 2486.96,3332.15 2480.96,3335.89 2472.25,3335.50 2463.67,3330.81"/>
    </edge>
    <edge id=":belfast_8" function="internal">
        <lane id=":belfast_8_0" index="0" speed="7.42" length="23.82" shape="2487.36,3324.42 2486.78,3329.35 2482.00,3330.72 2475.56,3328.92 2470.01,3324.34"/>
    </edge>
    <edge id=":belfast_9" function="internal">
        <lane id=":belfast_9_0" index="0" speed="3.54" length="4.26" shape="2487.36,3324.42 2486.96,3325.67 2486.35,3326.22 2485.55,3326.06 2484.55,3325.21"/>
    </edge>
    <edge id=":belfast_10" function="internal">
        <lane id=":belfast_10_0" index="0" speed="6.54" length="19.26" shape="2468.36,3326.02 2473.33,3331.11 2475.26,3332.53 2474.15,3330.27 2470.01,3324.34"/>
    </edge>
    <edge id=":belfast_11" function="internal">
        <lane id=":belfast_11_0" index="0" speed="9.34" length="36.97" shape="2468.36,3326.02 2479.03,3336.28 2485.29,3339.57 2487.13,3335.87 2484.55,3325.21"/>
    </edge>
    <edge id=":belfast_12" function="internal">
        <lane id=":belfast_12_0" index="0" speed="9.85" length="39.69" shape="2468.36,3326.02 2479.61,3336.61 2486.64,3339.85 2489.44,3335.75 2488.02,3324.30"/>
    </edge>
    <edge id=":belfast_13" function="internal">
        <lane id=":belfast_13_0" index="0" speed="10.00" length="55.98" shape="2468.36,3326.02 2480.31,3340.11 2487.48,3352.83 2488.04,3363.82 2480.15,3372.73"/>
    </edge>
    <edge id=":belfast_14" function="internal">
        <lane id=":belfast_14_0" index="0" speed="4.79" length="9.45" shape="2468.36,3326.02 2469.09,3328.27 2468.00,3330.38 2465.92,3331.50 2463.67,3330.81"/>
    </edge>
    <edge id=":belfast_15" function="internal">