<?xml version="1.0" encoding="UTF-8"?>

<!-- generated on 2024-09-30 20:52:54 by Eclipse SUMO netconvert Version 1.18.0
<configuration xmlns:xsi="http://www.w3.org/2001/XMLSchema-instance" xsi:noNamespaceSchemaLocation="http://sumo.dlr.de/xsd/netconvertConfiguration.xsd">

    <input>
        <node-files value="nod.xml"/>
        <edge-files value="edge_xmls/03340.xml"/>
    </input>

    <output>
        <output-file value="networks/03340.net.xml"/>
    </output>

</configuration>
-->

<net version="1.16" junctionCornerDetail="5" limitTurnSpeed="5.50" xmlns:xsi="http://www.w3.org/2001/XMLSchema-instance" xsi:noNamespaceSchemaLocation="http://sumo.dlr.de/xsd/net_file.xsd">

    <location netOffset="-682.00,4368.00" convBoundary="0.00,0.00,2498.00,3881.00" origBoundary="682.00,-4368.00,3180.00,-487.00" projParameter="!"/>

    <edge id=":antrim_0" function="internal">
        <lane id=":antrim_0_0" index="0" speed="6.78" length="20.80" shape="2284.46,3459.55 2283.47,3451.91 2282.71,3449.41 2282.16,3452.05 2281.83,3459.83"/>
    </edge>
    <edge id=":antrim_1" function="internal">
        <lane id=":antrim_1_0" index="0" speed="9.33" length="26.26" shape="2284.46,3459.55 2285.90,3471.15 2287.36,3479.17 2288.84,3483.62 2290.33,3484.49"/>
    </edge>
    <edge id=":antrim_2" function="internal">
        <lane id=":antrim_2_0" index="0" speed="10.00" length="43.15" shape="2284.46,3459.55 2284.73,3473.31 2282.29,3484.02 2277.13,3491.70 2269.25,3496.34"/>
    </edge>
    <edge id=":antrim_3" function="internal">
        <lane id=":antrim_3_0" index="0" speed="10.00" length="53.35" shape="2284.46,3459.55 2282.07,3472.23 2272.88,3476.96 2259.38,3475.41 2244.06,3469.25"/>
    </edge>
    <edge id=":antrim_4" function="internal">
        <lane id=":antrim_4_0" index="0" speed="10.00" length="46.77" shape="2284.46,3459.55 2281.81,3469.78 2272.90,3472.29 2260.95,3468.59 2249.20,3460.22"/>
    </edge>
    <edge id=":antrim_5" function="internal">
        <lane id=":antrim_5_0" index="0" speed="9.43" length="35.06" shape="2284.46,3459.55 2280.80,3463.21 2271.39,3462.14 2260.73,3458.14 2253.30,3453.02"/>
    </edge>
    <edge id=":antrim_6" function="internal">
        <lane id=":antrim_6_0" index="0" speed="9.44" length="35.67" shape="2284.46,3459.55 2280.64,3463.45 2270.91,3462.90 2259.96,3459.39 2252.51,3454.40"/>
    </edge>
    <edge id=":antrim_7" function="internal">
        <lane id=":antrim_7_0" index="0" speed="9.36" length="35.37" shape="2284.46,3459.55 2280.70,3463.34 2271.10,3462.52 2260.31,3458.72 2252.99,3453.56"/>
    </edge>
    <edge id=":antrim_8" function="internal">
        <lane id=":antrim_8_0" index="0" speed="9.96" length="40.96" shape="2284.46,3459.55 2282.12,3466.95 2274.47,3465.67 2264.65,3458.60 2255.80,3448.63"/>
    </edge>
    <edge id=":antrim_9" function="internal">
        <lane id=":antrim_9_0" index="0" speed="9.05" length="33.74" shape="2284.46,3459.55 2281.15,3462.47 2272.59,3459.74 2262.91,3453.97 2256.28,3447.78"/>
    </edge>
    <edge id=":antrim_10" function="internal">
        <lane id=":antrim_10_0" index="0" speed="9.69" length="42.50" shape="2284.46,3459.55 2282.85,3465.59 2276.99,3460.41 2269.55,3448.81 2263.21,3435.61"/>
    </edge>
    <edge id=":antrim_11" function="internal">
        <lane id=":antrim_11_0" index="0" speed="8.05" length="29.44" shape="2284.46,3459.55 2283.25,3463.74 2279.05,3460.21 2273.91,3452.20 2269.91,3442.95"/>
    </edge>
    <edge id=":antrim_12" function="internal">
        <lane id=":antrim_12_0" index="0" speed="7.72" length="27.62" shape="2284.46,3459.55 2283.60,3463.24 2280.30,3459.32 2276.28,3451.14 2273.23,3442.04"/>
    </edge>
    <edge id=":antrim_13" function="internal">
        <lane id=":antrim_13_0" index="0" speed="6.84" length="20.22" shape="2276.34,3441.30 2278.71,3451.00 2280.41,3457.32 2281.45,3460.26 2281.83,3459.83"/>
    </edge>
    <edge id=":antrim_14" function="internal">
        <lane id=":antrim_14_0" index="0" speed="10.00" length="45.83" shape="2276.34,3441.30 2281.23,3460.95 2285.19,3474.69 2288.23,3482.54 2290.33,3484.49"/>
    </edge>
    <edge id=":antrim_15" function="internal">
        <lane id=":antrim_15_0" index="0" speed="10.00" length="59.60" shape="2276.34,3441.30 2280.23,3463.02 2280.34,3479.44 2276.68,3490.54 2269.25,3496.34"/>
    </edge>
    <edge id=":antrim_16" function="internal">
        <lane id=":antrim_16_0" index="0" speed="10.00" length="55.86" shape="2276.34,3441.30 2276.57,3456.93 2270.16,3468.00 2258.77,3472.70 2244.06,3469.25"/>
    </edge>
    <edge id=":antrim_17" function="internal">
        <lane id=":antrim_17_0" index="0" speed="10.00" length="40.77" shape="2276.34,3441.30 2275.68,3452.32 2269.56,3459.79 2260.45,3462.03 2250.83,3457.35"/>
    </edge>
    <edge id=":antrim_18" function="internal">
        <lane id=":antrim_18_0" index="0" speed="8.56" length="30.12" shape="2276.34,3441.30 2274.36,3447.60 2267.66,3452.77 2259.53,3455.14 2253.30,3453.02"/>
    </edge>
    <edge id=":antrim_19" function="internal">
        <lane id=":antrim_19_0" index="0" speed="8.69" length="31.59" shape="2276.34,3441.30 2274.26,3447.98 2267.26,3453.71 2258.85,3456.51 2252.51,3454.40"/>
    </edge>
    <edge id=":antrim_20" function="internal">
        <lane id=":antrim_20_0" index="0" speed="8.75" length="32.31" shape="2276.34,3441.30 2275.35,3449.57 2269.62,3454.59 2261.85,3455.27 2254.71,3450.54"/>
    </edge>
    <edge id=":antrim_21" function="internal">
        <lane id=":antrim_21_0" index="0" speed="7.78" length="25.51" shape="2276.34,3441.30 2274.43,3446.27 2268.26,3449.85 2261.00,3450.99 2255.80,3448.63"/>
    </edge>
    <edge id=":antrim_22" function="internal">
        <lane id=":antrim_22_0" index="0" speed="7.63" length="24.67" shape="2276.34,3441.30 2274.44,3446.02 2268.39,3449.29 2261.30,3450.19 2256.28,3447.78"/>
    </edge>
    <edge id=":antrim_23" function="internal">
        <lane id=":antrim_23_0" index="0" speed="6.62" length="19.59" shape="2276.34,3441.30 2275.47,3444.72 2271.56,3444.13 2266.75,3440.71 2263.21,3435.61"/>
    </edge>
    <edge id=":antrim_24" function="internal">
        <lane id=":antrim_24_0" index="0" speed="4.77" length="9.37" shape="2276.34,3441.30 2275.85,3443.57 2273.86,3444.79 2271.50,3444.68 2269.91,3442.95"/>
    </edge>
    <edge id=":antrim_25" function="internal">
        <lane id=":antrim_25_0" index="0" speed="3.65" length="4.67" shape="2276.34,3441.30 2275.84,3442.66 2275.15,3443.23 2274.28,3443.02 2273.23,3442.04"/>
    </edge>
    <edge id=":antrim_26" function="internal">
        <lane id=":antrim_26_0" index="0" speed="7.31" length="23.02" shape="2274.35,3441.78 2277.56,3452.63 2279.87,3459.25 2281.30,3461.65 2281.83,3459.83"/>
    </edge>
    <edge id=":antrim_27" function="internal">
        <lane id=":antrim_27_0" index="0" speed="10.00" length="46.06" shape="2274.35,3441.78 2280.08,3461.23 2284.65,3474.84 2288.07,3482.59 2290.33,3484.49"/>
    </edge>
    <edge id=":antrim_28" function="internal">
        <lane id=":antrim_28_0" index="0" speed="10.00" length="59.14" shape="2274.35,3441.78 2279.13,3463.28 2279.88,3479.54 2276.58,3490.56 2269.25,3496.34"/>
    </edge>
    <edge id=":antrim_29" function="internal">
        <lane id=":antrim_29_0" index="0" speed="10.00" length="53.77" shape="2274.35,3441.78 2275.06,3456.75 2269.09,3467.60 2258.18,3472.41 2244.06,3469.25"/>
    </edge>
    <edge id=":antrim_30" function="internal">
        <lane id=":antrim_30_0" index="0" speed="9.70" length="38.33" shape="2274.35,3441.78 2274.05,3452.10 2268.42,3459.30 2259.86,3461.62 2250.83,3457.35"/>
    </edge>
    <edge id=":antrim_31" function="internal">
        <lane id=":antrim_31_0" index="0" speed="8.83" length="32.75" shape="2274.35,3441.78 2273.78,3450.34 2268.39,3455.97 2260.72,3457.32 2253.30,3453.02"/>
    </edge>
    <edge id=":antrim_32" function="internal">
        <lane id=":antrim_32_0" index="0" speed="8.35" length="29.49" shape="2274.35,3441.78 2272.63,3448.09 2266.24,3453.60 2258.44,3456.35 2252.51,3454.40"/>
    </edge>
    <edge id=":antrim_33" function="internal">
        <lane id=":antrim_33_0" index="0" speed="8.34" length="29.65" shape="2274.35,3441.78 2273.66,3449.33 2268.46,3454.03 2261.29,3454.80 2254.71,3450.54"/>
    </edge>
    <edge id=":antrim_34" function="internal">
        <lane id=":antrim_34_0" index="0" speed="7.38" length="23.17" shape="2274.35,3441.78 2272.74,3446.28 2267.16,3449.61 2260.54,3450.73 2255.80,3448.63"/>
    </edge>
    <edge id=":antrim_35" function="internal">
        <lane id=":antrim_35_0" index="0" speed="7.23" length="22.32" shape="2274.35,3441.78 2272.75,3446.03 2267.29,3449.04 2260.84,3449.92 2256.28,3447.78"/>
    </edge>
    <edge id=":antrim_36" function="internal">
        <lane id=":antrim_36_0" index="0" speed="6.22" length="17.32" shape="2274.35,3441.78 2273.78,3444.61 2270.47,3443.71 2266.32,3440.30 2263.21,3435.61"/>
    </edge>
    <edge id=":antrim_37" function="internal">
        <lane id=":antrim_37_0" index="0" speed="7.57" length="27.32" shape="2274.35,3441.78 2271.50,3431.94 2270.36,3428.70 2270.94,3432.07 2273.23,3442.04"/>
    </edge>
    <edge id=":antrim_38" function="internal">
        <lane id=":antrim_38_0" index="0" speed="4.16" length="6.70" shape="2274.35,3441.78 2273.68,3443.73 2272.72,3444.58 2271.46,3444.32 2269.91,3442.95"/>
    </edge>
    <edge id=":antrim_39" function="internal">
        <lane id=":antrim_39_0" index="0" speed="3.68" length="4.66" shape="2269.59,3443.05 2270.25,3444.67 2270.52,3445.19 2270.41,3444.62 2269.91,3442.95"/>
    </edge>
    <edge id=":antrim_40" function="internal">
        <lane id=":antrim_40_0" index="0" speed="7.62" length="26.67" shape="2269.59,3443.05 2273.46,3452.21 2275.35,3455.10 2275.28,3451.71 2273.23,3442.04"/>
    </edge>
    <edge id=":antrim_41" function="internal">
        <lane id=":antrim_41_0" index="0" speed="8.18" length="28.22" shape="2269.59,3443.05 2274.83,3455.45 2278.62,3462.38 2280.95,3463.84 2281.83,3459.83"/>
    </edge>
    <edge id=":antrim_42" function="internal">
        <lane id=":antrim_42_0" index="0" speed="10.00" length="46.83" shape="2269.59,3443.05 2277.34,3461.99 2283.38,3475.21 2287.71,3482.71 2290.33,3484.49"/>
    </edge>
    <edge id=":antrim_43" function="internal">
        <lane id=":antrim_43_0" index="0" speed="10.00" length="58.22" shape="2269.59,3443.05 2276.51,3463.98 2278.76,3479.84 2276.34,3490.62 2269.25,3496.34"/>
    </edge>
    <edge id=":antrim_44" function="internal">
        <lane id=":antrim_44_0" index="0" speed="10.00" length="48.68" shape="2269.59,3443.05 2271.29,3456.43 2266.40,3466.72 2256.72,3471.73 2244.06,3469.25"/>
    </edge>
    <edge id=":antrim_45" function="internal">
        <lane id=":antrim_45_0" index="0" speed="8.78" length="32.36" shape="2269.59,3443.05 2270.02,3451.71 2265.55,3458.18 2258.42,3460.67 2250.83,3457.35"/>
    </edge>
    <edge id=":antrim_46" function="internal">
        <lane id=":antrim_46_0" index="0" speed="7.84" length="26.45" shape="2269.59,3443.05 2269.65,3449.91 2265.48,3454.77 2259.29,3456.26 2253.30,3453.02"/>
    </edge>
    <edge id=":antrim_47" function="internal">
        <lane id=":antrim_47_0" index="0" speed="6.94" length="20.55" shape="2269.59,3443.05 2268.60,3447.29 2264.06,3450.98 2258.45,3452.79 2254.22,3451.40"/>
    </edge>
    <edge id=":antrim_48" function="internal">
        <lane id=":antrim_48_0" index="0" speed="7.30" length="23.16" shape="2269.59,3443.05 2269.49,3448.89 2265.53,3452.78 2259.88,3453.69 2254.71,3450.54"/>
    </edge>
    <edge id=":antrim_49" function="internal">
        <lane id=":antrim_49_0" index="0" speed="6.39" length="17.51" shape="2269.59,3443.05 2268.60,3446.44 2264.44,3449.09 2259.41,3450.12 2255.80,3448.63"/>
    </edge>
    <edge id=":antrim_50" function="internal">
        <lane id=":antrim_50_0" index="0" speed="6.22" length="16.62" shape="2269.59,3443.05 2268.61,3446.19 2264.57,3448.52 2259.72,3449.30 2256.28,3447.78"/>
    </edge>
    <edge id=":antrim_51" function="internal">
        <lane id=":antrim_51_0" index="0" speed="5.63" length="14.31" shape="2269.59,3443.05 2265.21,3443.58 2262.68,3442.52 2262.02,3439.86 2263.21,3435.61"/>
    </edge>
    <edge id=":antrim_52" function="internal">
        <lane id=":antrim_52_0" index="0" speed="9.01" length="37.81" shape="2259.43,3442.26 2266.50,3453.08 2269.49,3455.57 2268.39,3449.75 2263.21,3435.61"/>
    </edge>
    <edge id=":antrim_53" function="internal">
        <lane id=":antrim_53_0" index="0" speed="9.30" length="39.38" shape="2259.43,3442.26 2268.01,3455.33 2272.62,3459.80 2273.25,3455.67 2269.91,3442.95"/>
    </edge>
    <edge id=":antrim_54" function="internal">
        <lane id=":antrim_54_0" index="0" speed="9.85" length="43.18" shape="2259.43,3442.26 2268.80,3456.22 2274.22,3460.84 2275.70,3456.12 2273.23,3442.04"/>
    </edge>
    <edge id=":antrim_55" function="internal">
        <lane id=":antrim_55_0" index="0" speed="9.79" length="38.43" shape="2259.43,3442.26 2269.08,3456.91 2276.03,3464.73 2280.28,3465.70 2281.83,3459.83"/>
    </edge>
    <edge id=":antrim_56" function="internal">
        <lane id=":antrim_56_0" index="0" speed="10.00" length="52.80" shape="2259.43,3442.26 2271.52,3461.60 2280.71,3475.09 2286.98,3482.72 2290.33,3484.49"/>
    </edge>
    <edge id=":antrim_57" function="internal">
        <lane id=":antrim_57_0" index="0" speed="10.00" length="61.23" shape="2259.43,3442.26 2269.90,3460.96 2276.28,3477.06 2276.68,3489.28 2269.25,3496.34"/>
    </edge>
    <edge id=":antrim_58" function="internal">
        <lane id=":antrim_58_0" index="0" speed="10.00" length="42.02" shape="2259.43,3442.26 2262.97,3453.80 2260.86,3464.24 2254.19,3470.43 2244.06,3469.25"/>
    </edge>
    <edge id=":antrim_59" function="internal">
        <lane id=":antrim_59_0" index="0" speed="7.40" length="24.01" shape="2259.43,3442.26 2261.18,3449.04 2259.62,3455.41 2255.81,3458.98 2250.83,3457.35"/>
    </edge>
    <edge id=":antrim_60" function="internal">
        <lane id=":antrim_60_0" index="0" speed="5.80" length="14.49" shape="2259.43,3442.26 2259.75,3445.87 2258.17,3450.14 2255.68,3453.16 2253.30,3453.02"/>
    </edge>
    <edge id=":antrim_61" function="internal">
        <lane id=":antrim_61_0" index="0" speed="5.80" length="14.64" shape="2259.43,3442.26 2260.40,3446.44 2259.32,3450.42 2256.99,3452.61 2254.22,3451.40"/>
    </edge>
    <edge id=":antrim_62" function="internal">
        <lane id=":antrim_62_0" index="0" speed="5.15" length="11.14" shape="2259.43,3442.26 2259.66,3445.05 2258.41,3448.36 2256.49,3450.69 2254.71,3450.54"/>
    </edge>
    <edge id=":antrim_63" function="internal">
        <lane id=":antrim_63_0" index="0" speed="4.09" length="6.35" shape="2259.43,3442.26 2256.28,3447.78"/>
    </edge>
    <edge id=":antrim_64" function="internal">
        <lane id=":antrim_64_0" index="0" speed="5.03" length="10.70" shape="2259.43,3442.26 2260.91,3445.21 2260.80,3447.26 2259.09,3448.39 2255.80,3448.63"/>
    </edge>
    <edge id=":antrim_65" function="internal">
        <lane id=":antrim_65_0" index="0" speed="9.50" length="41.58" shape="2258.05,3444.67 2266.28,3455.83 2269.88,3458.04 2268.86,3451.30 2263.21,3435.61"/>
    </edge>
    <edge id=":antrim_66" function="internal">
        <lane id=":antrim_66_0" index="0" speed="9.60" length="41.32" shape="2258.05,3444.67 2267.47,3457.44 2272.59,3461.41 2273.40,3456.58 2269.91,3442.95"/>
    </edge>
    <edge id=":antrim_67" function="internal">
        <lane id=":antrim_67_0" index="0" speed="10.00" length="44.42" shape="2258.05,3444.67 2268.14,3458.07 2274.03,3462.09 2275.73,3456.75 2273.23,3442.04"/>
    </edge>
    <edge id=":antrim_68" function="internal">
        <lane id=":antrim_68_0" index="0" speed="10.00" length="44.43" shape="2258.05,3444.67 2269.66,3460.32 2278.03,3468.00 2283.15,3467.73 2285.04,3459.49"/>
    </edge>
    <edge id=":antrim_69" function="internal">
        <lane id=":antrim_69_0" index="0" speed="10.00" length="51.74" shape="2258.05,3444.67 2270.73,3462.98 2280.33,3475.71 2286.87,3482.88 2290.33,3484.49"/>
    </edge>
    <edge id=":antrim_70" function="internal">
        <lane id=":antrim_70_0" index="0" speed="10.00" length="59.42" shape="2258.05,3444.67 2268.98,3462.26 2275.82,3477.61 2276.58,3489.41 2269.25,3496.34"/>
    </edge>
    <edge id=":antrim_71" function="internal">
        <lane id=":antrim_71_0" index="0" speed="9.66" length="38.46" shape="2258.05,3444.67 2261.53,3455.02 2259.59,3464.54 2253.37,3470.27 2244.06,3469.25"/>
    </edge>
    <edge id=":antrim_72" function="internal">
        <lane id=":antrim_72_0" index="0" speed="6.79" length="20.25" shape="2258.05,3444.67 2259.65,3450.28 2258.33,3455.64 2255.06,3458.69 2250.83,3457.35"/>
    </edge>
    <edge id=":antrim_73" function="internal">
        <lane id=":antrim_73_0" index="0" speed="5.57" length="13.40" shape="2258.05,3444.67 2259.05,3448.42 2258.09,3452.03 2255.92,3454.06 2253.30,3453.02"/>
    </edge>
    <edge id=":antrim_74" function="internal">
        <lane id=":antrim_74_0" index="0" speed="4.71" length="9.08" shape="2258.05,3444.67 2258.29,3446.91 2257.28,3449.60 2255.70,3451.51 2254.22,3451.40"/>
    </edge>
    <edge id=":antrim_75" function="internal">
        <lane id=":antrim_75_0" index="0" speed="4.19" length="6.75" shape="2258.05,3444.67 2254.71,3450.54"/>
    </edge>
    <edge id=":antrim_76" function="internal">
        <lane id=":antrim_76_0" index="0" speed="3.62" length="4.55" shape="2258.05,3444.67 2255.80,3448.63"/>
    </edge>
    <edge id=":antrim_77" function="internal">
        <lane id=":antrim_77_0" index="0" speed="3.79" length="5.22" shape="2258.05,3444.67 2258.77,3446.11 2258.72,3447.11 2257.89,3447.66 2256.28,3447.78"/>
    </edge>
    <edge id=":antrim_78" function="internal">
        <lane id=":antrim_78_0" index="0" speed="6.04" length="16.24" shape="2252.46,3454.48 2256.81,3458.53 2258.40,3459.63 2257.23,3457.80 2253.30,3453.02"/>
    </edge>
    <edge id=":antrim_79" function="internal">
        <lane id=":antrim_79_0" index="0" speed="7.23" length="23.91" shape="2252.46,3454.48 2246.11,3448.64 2243.71,3447.18 2245.28,3450.10 2250.80,3457.40"/>
    </edge>
    <edge id=":antrim_80" function="internal">
        <lane id=":antrim_80_0" index="0" speed="4.22" length="6.63" shape="2252.46,3454.48 2254.22,3456.08 2254.89,3456.46 2254.48,3455.62 2252.99,3453.56"/>
    </edge>
    <edge id=":antrim_81" function="internal">
        <lane id=":antrim_81_0" index="0" speed="8.54" length="33.43" shape="2252.46,3454.48 2261.22,3462.34 2264.69,3463.99 2262.88,3459.42 2255.80,3448.63"/>
    </edge>
    <edge id=":antrim_82" function="internal">
        <lane id=":antrim_82_0" index="0" speed="8.77" length="35.15" shape="2252.46,3454.48 2261.62,3462.65 2265.30,3464.25 2263.53,3459.29 2256.28,3447.78"/>
    </edge>
    <edge id=":antrim_83" function="internal">
        <lane id=":antrim_83_0" index="0" speed="10.00" length="50.00" shape="2252.46,3454.48 2264.14,3463.90 2269.83,3463.90 2269.52,3454.46 2263.21,3435.61"/>
    </edge>
    <edge id=":antrim_84" function="internal">
        <lane id=":antrim_84_0" index="0" speed="10.00" length="46.99" shape="2252.46,3454.48 2264.86,3464.65 2271.90,3466.11 2273.58,3458.88 2269.91,3442.95"/>
    </edge>
    <edge id=":antrim_85" function="internal">
        <lane id=":antrim_85_0" index="0" speed="10.00" length="49.06" shape="2252.46,3454.48 2265.28,3464.80 2273.02,3466.17 2275.67,3458.58 2273.23,3442.04"/>
    </edge>
    <edge id=":antrim_86" function="internal">
        <lane id=":antrim_86_0" index="0" speed="10.00" length="45.80" shape="2252.46,3454.48 2266.51,3466.36 2276.61,3471.15 2282.79,3468.86 2285.04,3459.49"/>
    </edge>
    <edge id=":antrim_87" function="internal">
        <lane id=":antrim_87_0" index="0" speed="10.00" length="48.79" shape="2252.46,3454.48 2267.49,3468.55 2278.81,3478.24 2286.42,3483.55 2290.33,3484.49"/>
    </edge>
    <edge id=":antrim_88" function="internal">
        <lane id=":antrim_88_0" index="0" speed="10.00" length="46.22" shape="2252.46,3454.48 2258.61,3463.35 2265.45,3476.98 2269.99,3489.83 2269.25,3496.34"/>
    </edge>
    <edge id=":antrim_89" function="internal">
        <lane id=":antrim_89_0" index="0" speed="6.84" length="19.95" shape="2252.46,3454.48 2253.58,3458.81 2251.68,3464.31 2248.07,3468.58 2244.06,3469.25"/>
    </edge>
    <edge id=":antrim_90" function="internal">
        <lane id=":antrim_90_0" index="0" speed="3.69" length="4.82" shape="2252.46,3454.48 2253.13,3455.81 2253.08,3456.73 2252.32,3457.25 2250.83,3457.35"/>
    </edge>
    <edge id=":antrim_91" function="internal">
        <lane id=":antrim_91_0" index="0" speed="7.67" length="25.63" shape="2245.64,3466.46 2253.93,3470.22 2257.29,3470.43 2255.71,3467.10 2249.20,3460.22"/>
    </edge>
    <edge id=":antrim_92" function="internal">
        <lane id=":antrim_92_0" index="0" speed="9.89" length="42.25" shape="2245.64,3466.46 2258.83,3472.16 2264.51,3471.81 2262.66,3465.44 2253.30,3453.02"/>
    </edge>
    <edge id=":antrim_93" function="internal">
        <lane id=":antrim_93_0" index="0" speed="7.97" length="26.38" shape="2245.64,3466.46 2253.75,3469.90 2257.32,3469.53 2256.33,3465.37 2250.80,3457.40"/>
    </edge>
    <edge id=":antrim_94" function="internal">
        <lane id=":antrim_94_0" index="0" speed="9.28" length="36.18" shape="2245.64,3466.46 2256.68,3471.09 2261.58,3470.48 2260.35,3464.64 2252.99,3453.56"/>
    </edge>
    <edge id=":antrim_95" function="internal">
        <lane id=":antrim_95_0" index="0" speed="10.00" length="46.43" shape="2245.64,3466.46 2259.53,3472.16 2265.85,3471.08 2264.61,3463.24 2255.80,3448.63"/>
    </edge>
    <edge id=":antrim_96" function="internal">
        <lane id=":antrim_96_0" index="0" speed="10.00" length="47.21" shape="2245.64,3466.46 2259.64,3472.15 2266.08,3470.93 2264.96,3462.80 2256.28,3447.78"/>
    </edge>
    <edge id=":antrim_97" function="internal">
        <lane id=":antrim_97_0" index="0" speed="10.00" length="58.33" shape="2245.64,3466.46 2260.73,3471.72 2268.69,3468.34 2269.52,3456.30 2263.21,3435.61"/>
    </edge>
    <edge id=":antrim_98" function="internal">
        <lane id=":antrim_98_0" index="0" speed="10.00" length="54.24" shape="2245.64,3466.46 2261.29,3472.26 2270.55,3470.27 2273.43,3460.50 2269.91,3442.95"/>
    </edge>
    <edge id=":antrim_99" function="internal">
        <lane id=":antrim_99_0" index="0" speed="10.00" length="56.07" shape="2245.64,3466.46 2261.62,3472.26 2271.54,3470.12 2275.41,3460.05 2273.23,3442.04"/>
    </edge>
    <edge id=":antrim_100" function="internal">
        <lane id=":antrim_100_0" index="0" speed="10.00" length="50.38" shape="2245.64,3466.46 2262.66,3473.51 2274.90,3474.69 2282.36,3470.02 2285.04,3459.49"/>
    </edge>
    <edge id=":antrim_101" function="internal">
        <lane id=":antrim_101_0" index="0" speed="10.00" length="48.55" shape="2245.64,3466.46 2263.54,3475.35 2276.96,3481.32 2285.89,3484.37 2290.33,3484.49"/>
    </edge>
    <edge id=":antrim_102" function="internal">
        <lane id=":antrim_102_0" index="0" speed="10.00" length="39.95" shape="2245.64,3466.46 2253.69,3472.50 2263.15,3482.00 2269.75,3491.20 2269.25,3496.34"/>
    </edge>
    <edge id=":antrim_103" function="internal">
        <lane id=":antrim_103_0" index="0" speed="3.65" length="4.68" shape="2245.64,3466.46 2246.29,3467.75 2246.24,3468.65 2245.50,3469.14 2244.06,3469.25"/>
    </edge>
    <edge id=":antrim_104" function="internal">
        <lane id=":antrim_104_0" index="0" speed="7.55" length="24.84" shape="2245.84,3466.10 2253.86,3469.83 2257.09,3470.10 2255.53,3466.89 2249.20,3460.22"/>
    </edge>
    <edge id=":antrim_105" function="internal">
        <lane id=":antrim_105_0" index="0" speed="9.83" length="41.92" shape="2245.84,3466.10 2258.90,3471.90 2264.50,3471.65 2262.63,3465.36 2253.30,3453.02"/>
    </edge>
    <edge id=":antrim_106" function="internal">
        <lane id=":antrim_106_0" index="0" speed="7.87" length="25.77" shape="2245.84,3466.10 2253.75,3469.55 2257.21,3469.25 2256.23,3465.20 2250.80,3457.40"/>
    </edge>
    <edge id=":antrim_107" function="internal">
        <lane id=":antrim_107_0" index="0" speed="9.21" length="35.74" shape="2245.84,3466.10 2256.72,3470.80 2261.54,3470.27 2260.29,3464.53 2252.99,3453.56"/>
    </edge>
    <edge id=":antrim_108" function="internal">
        <lane id=":antrim_108_0" index="0" speed="10.00" length="46.15" shape="2245.84,3466.10 2259.62,3471.92 2265.87,3470.94 2264.60,3463.18 2255.80,3448.63"/>
    </edge>
    <edge id=":antrim_109" function="internal">
        <lane id=":antrim_109_0" index="0" speed="10.00" length="46.93" shape="2245.84,3466.10 2259.73,3471.91 2266.10,3470.79 2264.95,3462.74 2256.28,3447.78"/>
    </edge>
    <edge id=":antrim_110" function="internal">
        <lane id=":antrim_110_0" index="0" speed="10.00" length="58.06" shape="2245.84,3466.10 2260.84,3471.50 2268.73,3468.22 2269.52,3456.25 2263.21,3435.61"/>
    </edge>
    <edge id=":antrim_111" function="internal">
        <lane id=":antrim_111_0" index="0" speed="10.00" length="54.00" shape="2245.84,3466.10 2261.40,3472.04 2270.60,3470.16 2273.43,3460.46 2269.91,3442.95"/>
    </edge>
    <edge id=":antrim_112" function="internal">
        <lane id=":antrim_112_0" index="0" speed="10.00" length="55.83" shape="2245.84,3466.10 2261.73,3472.04 2271.58,3470.01 2275.42,3460.01 2273.23,3442.04"/>
    </edge>
    <edge id=":antrim_113" function="internal">
        <lane id=":antrim_113_0" index="0" speed="10.00" length="50.20" shape="2245.84,3466.10 2262.77,3473.29 2274.95,3474.59 2282.37,3469.99 2285.04,3459.49"/>
    </edge>
    <edge id=":antrim_114" function="internal">
        <lane id=":antrim_114_0" index="0" speed="10.00" length="48.50" shape="2245.84,3466.10 2263.66,3475.15 2277.01,3481.23 2285.90,3484.34 2290.33,3484.49"/>
    </edge>
    <edge id=":antrim_115" function="internal">
        <lane id=":antrim_115_0" index="0" speed="10.00" length="47.85" shape="2245.84,3466.10 2259.87,3474.17 2271.10,3482.73 2275.55,3490.54 2269.25,3496.34"/>
    </edge>
    <edge id=":antrim_116" function="internal">
        <lane id=":antrim_116_0" index="0" speed="3.37" length="3.62" shape="2245.84,3466.10 2244.06,3469.25"/>
    </edge>
    <edge id=":antrim_117" function="internal">
        <lane id=":antrim_117_0" index="0" speed="10.00" length="40.25" shape="2268.23,3493.31 2271.84,3490.07 2269.02,3484.98 2259.76,3478.04 2244.06,3469.25"/>
    </edge>
    <edge id=":antrim_118" function="internal">
        <lane id=":antrim_118_0" index="0" speed="10.00" length="42.10" shape="2268.23,3493.31 2271.29,3489.80 2269.14,3483.12 2261.78,3473.26 2249.20,3460.22"/>
    </edge>
    <edge id=":antrim_119" function="internal">
        <lane id=":antrim_119_0" index="0" speed="10.00" length="48.20" shape="2268.23,3493.31 2272.93,3488.89 2272.01,3480.70 2265.46,3468.75 2253.30,3453.02"/>
    </edge>
    <edge id=":antrim_120" function="internal">
        <lane id=":antrim_120_0" index="0" speed="10.00" length="45.69" shape="2268.23,3493.31 2271.70,3489.37 2270.24,3481.58 2263.84,3469.92 2252.51,3454.40"/>
    </edge>
    <edge id=":antrim_121" function="internal">
        <lane id=":antrim_121_0" index="0" speed="10.00" length="46.26" shape="2268.23,3493.31 2271.76,3489.31 2270.39,3481.35 2264.14,3469.44 2252.99,3453.56"/>
    </edge>
    <edge id=":antrim_122" function="internal">
        <lane id=":antrim_122_0" index="0" speed="10.00" length="51.23" shape="2268.23,3493.31 2273.16,3488.59 2272.74,3479.57 2266.95,3466.25 2255.80,3448.63"/>
    </edge>
    <edge id=":antrim_123" function="internal">
        <lane id=":antrim_123_0" index="0" speed="10.00" length="51.86" shape="2268.23,3493.31 2273.21,3488.53 2272.88,3479.35 2267.24,3465.76 2256.28,3447.78"/>
    </edge>
    <edge id=":antrim_124" function="internal">
        <lane id=":antrim_124_0" index="0" speed="10.00" length="61.75" shape="2268.23,3493.31 2273.79,3487.72 2274.81,3476.24 2271.28,3458.87 2263.21,3435.61"/>
    </edge>
    <edge id=":antrim_125" function="internal">
        <lane id=":antrim_125_0" index="0" speed="10.00" length="54.11" shape="2268.23,3493.31 2274.25,3488.16 2276.54,3478.06 2275.09,3462.99 2269.91,3442.95"/>
    </edge>
    <edge id=":antrim_126" function="internal">
        <lane id=":antrim_126_0" index="0" speed="10.00" length="54.96" shape="2268.23,3493.31 2274.49,3488.09 2277.42,3477.81 2277.00,3462.46 2273.23,3442.04"/>
    </edge>
    <edge id=":antrim_127" function="internal">
        <lane id=":antrim_127_0" index="0" speed="10.00" length="40.19" shape="2268.23,3493.31 2275.35,3489.14 2280.53,3482.12 2283.76,3472.23 2285.04,3459.49"/>
    </edge>
    <edge id=":antrim_128" function="internal">
        <lane id=":antrim_128_0" index="0" speed="10.00" length="23.82" shape="2268.23,3493.31 2273.08,3491.62 2279.45,3489.27 2285.74,3486.74 2290.33,3484.49"/>
    </edge>
    <edge id=":antrim_129" function="internal">
        <lane id=":antrim_129_0" index="0" speed="3.65" length="4.67" shape="2268.23,3493.31 2269.62,3493.68 2270.25,3494.31 2270.13,3495.20 2269.25,3496.34"/>
    </edge>
    <edge id=":athlone_0" function="internal">
        <lane id=":athlone_0_0" index="0" speed="10.00" length="27.22" shape="1254.77,1980.76 1253.35,1973.04 1251.71,1965.40 1249.75,1958.94 1247.33,1954.79"/>
    </edge>
    <edge id=":athlone_1" function="internal">
        <lane id=":athlone_1_0" index="0" speed="10.00" length="36.15" shape="1254.77,1980.76 1254.60,1971.72 1256.11,1961.06 1258.29,1951.37 1260.11,1945.22"/>
    </edge>
    <edge id=":athlone_2" function="internal">
        <lane id=":athlone_2_0" index="0" speed="10.00" length="48.80" shape="1254.77,1980.76 1255.32,1971.35 1260.58,1962.64 1270.54,1954.61 1285.21,1947.27"/>
    </edge>
    <edge id=":athlone_3" function="internal">