<?xml version="1.0" encoding="UTF-8"?>

<!-- generated on 2024-09-30 20:59:14 by Eclipse SUMO netconvert Version 1.18.0
<configuration xmlns:xsi="http://www.w3.org/2001/XMLSchema-instance" xsi:noNamespaceSchemaLocation="http://sumo.dlr.de/xsd/netconvertConfiguration.xsd">

    <input>
        <node-files value="nod.xml"/>
        <edge-files value="edge_xmls/03425.xml"/>
    </input>

    <output>
        <output-file value="networks/03425.net.xml"/>
    </output>

</configuration>
-->

<net version="1.16" junctionCornerDetail="5" limitTurnSpeed="5.50" xmlns:xsi="http://www.w3.org/2001/XMLSchema-instance" xsi:noNamespaceSchemaLocation="http://sumo.dlr.de/xsd/net_file.xsd">

    <location netOffset="-682.00,4368.00" convBoundary="0.00,0.00,2498.00,3881.00" origBoundary="682.00,-4368.00,3180.00,-487.00" projParameter="!"/>

    <edge id=":antrim_0" function="internal">
        <lane id=":antrim_0_0" index="0" speed="5.17" length="11.19" shape="2289.79,3467.82 2288.47,3469.32 2285.38,3469.30 2282.16,3468.10 2280.45,3466.07"/>
    </edge>
    <edge id=":antrim_1" function="internal">
        <lane id=":antrim_1_0" index="0" speed="10.00" length="69.81" shape="2289.79,3467.82 2288.21,3440.86 2286.88,3431.30 2285.78,3439.14 2284.93,3464.37"/>
    </edge>
    <edge id=":antrim_2" function="internal">
        <lane id=":antrim_2_0" index="0" speed="10.00" length="33.82" shape="2289.79,3467.82 2289.24,3477.79 2286.16,3484.59 2280.13,3487.97 2270.68,3487.73"/>
    </edge>
    <edge id=":antrim_3" function="internal">
        <lane id=":antrim_3_0" index="0" speed="10.00" length="40.59" shape="2289.79,3467.82 2285.18,3473.00 2274.04,3475.43 2261.32,3475.44 2252.03,3473.34"/>
    </edge>
    <edge id=":antrim_4" function="internal">
        <lane id=":antrim_4_0" index="0" speed="9.83" length="35.60" shape="2289.79,3467.82 2285.83,3471.80 2276.21,3471.44 2265.31,3468.26 2257.51,3463.78"/>
    </edge>
    <edge id=":antrim_5" function="internal">
        <lane id=":antrim_5_0" index="0" speed="9.32" length="32.24" shape="2286.60,3468.00 2283.21,3471.85 2274.88,3471.18 2265.30,3467.65 2258.17,3462.94"/>
    </edge>
    <edge id=":antrim_6" function="internal">
        <lane id=":antrim_6_0" index="0" speed="9.63" length="36.27" shape="2286.60,3468.00 2282.80,3470.52 2273.61,3466.88 2263.31,3460.26 2256.17,3453.87"/>
    </edge>
    <edge id=":antrim_7" function="internal">
        <lane id=":antrim_7_0" index="0" speed="9.29" length="34.79" shape="2286.60,3468.00 2283.16,3470.25 2274.82,3466.00 2265.47,3458.69 2259.00,3451.80"/>
    </edge>
    <edge id=":antrim_8" function="internal">
        <lane id=":antrim_8_0" index="0" speed="5.42" length="11.59" shape="2286.60,3468.00 2285.46,3470.55 2282.72,3472.69 2279.71,3473.64 2277.81,3472.59"/>
    </edge>
    <edge id=":antrim_9" function="internal">
        <lane id=":antrim_9_0" index="0" speed="4.64" length="8.41" shape="2286.60,3468.00 2285.61,3469.39 2283.29,3469.97 2280.84,3469.66 2279.48,3468.42"/>
    </edge>
    <edge id=":antrim_10" function="internal">
        <lane id=":antrim_10_0" index="0" speed="4.03" length="6.15" shape="2286.60,3468.00 2284.71,3468.19 2283.64,3467.71 2283.38,3466.56 2283.94,3464.74"/>
    </edge>
    <edge id=":antrim_11" function="internal">
        <lane id=":antrim_11_0" index="0" speed="10.00" length="121.29" shape="2264.79,3447.93 2236.90,3412.01 2226.64,3400.68 2234.00,3413.95 2259.00,3451.80"/>
    </edge>
    <edge id=":antrim_12" function="internal">
        <lane id=":antrim_12_0" index="0" speed="7.97" length="27.97" shape="2264.79,3447.93 2268.16,3452.83 2271.45,3458.57 2274.67,3465.16 2277.81,3472.59"/>
    </edge>
    <edge id=":antrim_13" function="internal">
        <lane id=":antrim_13_0" index="0" speed="7.80" length="25.23" shape="2264.79,3447.93 2271.06,3456.24 2275.60,3462.43 2278.41,3466.49 2279.48,3468.42"/>
    </edge>
    <edge id=":antrim_14" function="internal">
        <lane id=":antrim_14_0" index="0" speed="7.75" length="24.30" shape="2264.79,3447.93 2271.84,3457.04 2276.80,3463.10 2279.67,3466.11 2280.45,3466.07"/>
    </edge>
    <edge id=":antrim_15" function="internal">
        <lane id=":antrim_15_0" index="0" speed="9.27" length="33.33" shape="2262.12,3449.71 2271.77,3461.53 2278.62,3467.97 2282.67,3469.04 2283.94,3464.74"/>
    </edge>
    <edge id=":antrim_16" function="internal">
        <lane id=":antrim_16_0" index="0" speed="9.50" length="34.42" shape="2262.12,3449.71 2271.98,3461.70 2279.07,3468.14 2283.38,3469.03 2284.93,3464.37"/>
    </edge>
    <edge id=":antrim_17" function="internal">
        <lane id=":antrim_17_0" index="0" speed="10.00" length="41.01" shape="2262.12,3449.71 2266.88,3458.85 2271.48,3471.95 2273.54,3483.43 2270.68,3487.73"/>
    </edge>
    <edge id=":antrim_18" function="internal">
        <lane id=":antrim_18_0" index="0" speed="8.05" length="26.75" shape="2259.46,3451.49 2261.23,3457.98 2260.06,3466.03 2256.73,3472.27 2252.03,3473.34"/>
    </edge>
    <edge id=":antrim_19" function="internal">
        <lane id=":antrim_19_0" index="0" speed="5.77" length="14.33" shape="2259.46,3451.49 2260.63,3455.21 2260.55,3459.95 2259.43,3463.54 2257.51,3463.78"/>
    </edge>
    <edge id=":antrim_20" function="internal">
        <lane id=":antrim_20_0" index="0" speed="5.55" length="13.22" shape="2259.46,3451.49 2260.62,3454.96 2260.70,3459.39 2259.83,3462.73 2258.17,3462.94"/>
    </edge>
    <edge id=":antrim_21" function="internal">
        <lane id=":antrim_21_0" index="0" speed="3.97" length="5.93" shape="2259.46,3451.49 2259.53,3453.32 2259.00,3454.33 2257.88,3454.51 2256.17,3453.87"/>
    </edge>
    <edge id=":antrim_22" function="internal">
        <lane id=":antrim_22_0" index="0" speed="4.22" length="6.79" shape="2257.14,3464.38 2259.14,3465.89 2259.87,3466.29 2259.33,3465.59 2257.51,3463.78"/>
    </edge>
    <edge id=":antrim_23" function="internal">
        <lane id=":antrim_23_0" index="0" speed="5.63" length="13.62" shape="2257.14,3464.38 2261.17,3467.39 2262.68,3468.15 2261.68,3466.67 2258.17,3462.94"/>
    </edge>
    <edge id=":antrim_24" function="internal">
        <lane id=":antrim_24_0" index="0" speed="8.13" length="29.61" shape="2257.14,3464.38 2264.31,3469.38 2266.54,3469.30 2263.82,3464.12 2256.17,3453.87"/>
    </edge>
    <edge id=":antrim_25" function="internal">
        <lane id=":antrim_25_0" index="0" speed="8.74" length="33.60" shape="2257.14,3464.38 2265.46,3470.01 2268.54,3469.80 2266.39,3463.73 2259.00,3451.80"/>
    </edge>
    <edge id=":antrim_26" function="internal">
        <lane id=":antrim_26_0" index="0" speed="8.44" length="28.57" shape="2257.14,3464.38 2267.89,3472.29 2274.91,3476.30 2278.22,3476.40 2277.81,3472.59"/>
    </edge>
    <edge id=":antrim_27" function="internal">
        <lane id=":antrim_27_0" index="0" speed="9.15" length="31.81" shape="2257.14,3464.38 2268.38,3472.34 2275.85,3475.66 2279.55,3474.36 2279.48,3468.42"/>
    </edge>
    <edge id=":antrim_28" function="internal">
        <lane id=":antrim_28_0" index="0" speed="9.53" length="33.66" shape="2257.14,3464.38 2268.57,3472.29 2276.26,3475.21 2280.22,3473.13 2280.45,3466.07"/>
    </edge>
    <edge id=":antrim_29" function="internal">
        <lane id=":antrim_29_0" index="0" speed="10.00" length="36.73" shape="2257.14,3464.38 2269.02,3472.39 2277.44,3475.11 2282.41,3472.57 2283.94,3464.74"/>
    </edge>
    <edge id=":antrim_30" function="internal">
        <lane id=":antrim_30_0" index="0" speed="10.00" length="37.61" shape="2257.14,3464.38 2269.13,3472.40 2277.75,3475.07 2283.02,3472.39 2284.93,3464.37"/>
    </edge>
    <edge id=":antrim_31" function="internal">
        <lane id=":antrim_31_0" index="0" speed="8.57" length="30.17" shape="2257.14,3464.38 2263.44,3470.57 2269.81,3478.73 2273.24,3485.55 2270.68,3487.73"/>
    </edge>
    <edge id=":antrim_32" function="internal">
        <lane id=":antrim_32_0" index="0" speed="5.41" length="12.17" shape="2257.14,3464.38 2257.92,3466.90 2256.75,3470.25 2254.50,3472.90 2252.03,3473.34"/>
    </edge>
    <edge id=":antrim_33" function="internal">
        <lane id=":antrim_33_0" index="0" speed="6.30" length="16.61" shape="2254.95,3467.65 2260.40,3470.12 2262.64,3470.30 2261.67,3468.19 2257.51,3463.78"/>
    </edge>
    <edge id=":antrim_34" function="internal">
        <lane id=":antrim_34_0" index="0" speed="6.70" length="18.81" shape="2254.95,3467.65 2261.09,3470.41 2263.67,3470.54 2262.70,3468.05 2258.17,3462.94"/>
    </edge>
    <edge id=":antrim_35" function="internal">
        <lane id=":antrim_35_0" index="0" speed="8.42" length="29.65" shape="2254.95,3467.65 2262.69,3470.72 2265.47,3469.45 2263.29,3463.83 2256.17,3453.87"/>
    </edge>
    <edge id=":antrim_36" function="internal">
        <lane id=":antrim_36_0" index="0" speed="8.97" length="32.90" shape="2254.95,3467.65 2263.65,3471.00 2267.23,3469.48 2265.68,3463.08 2259.00,3451.80"/>
    </edge>
    <edge id=":antrim_37" function="internal">
        <lane id=":antrim_37_0" index="0" speed="8.59" length="27.23" shape="2254.95,3467.65 2266.21,3473.01 2273.78,3475.62 2277.64,3475.48 2277.81,3472.59"/>
    </edge>
    <edge id=":antrim_38" function="internal">
        <lane id=":antrim_38_0" index="0" speed="9.41" length="30.87" shape="2254.95,3467.65 2266.88,3473.04 2274.94,3474.96 2279.14,3473.42 2279.48,3468.42"/>
    </edge>
    <edge id=":antrim_39" function="internal">
        <lane id=":antrim_39_0" index="0" speed="10.00" length="36.65" shape="2253.49,3470.50 2266.57,3476.08 2275.43,3477.20 2280.05,3473.86 2280.45,3466.07"/>
    </edge>
    <edge id=":antrim_40" function="internal">
        <lane id=":antrim_40_0" index="0" speed="10.00" length="39.64" shape="2253.49,3470.50 2266.97,3476.08 2276.53,3476.99 2282.19,3473.21 2283.94,3464.74"/>
    </edge>
    <edge id=":antrim_41" function="internal">
        <lane id=":antrim_41_0" index="0" speed="10.00" length="40.51" shape="2253.49,3470.50 2267.07,3476.08 2276.83,3476.92 2282.79,3473.01 2284.93,3464.37"/>
    </edge>
    <edge id=":antrim_42" function="internal">
        <lane id=":antrim_42_0" index="0" speed="8.53" length="32.25" shape="2253.49,3470.50 2263.12,3476.15 2271.58,3482.37 2275.30,3486.97 2270.68,3487.73"/>
    </edge>
    <edge id=":antrim_43" function="internal">
        <lane id=":antrim_43_0" index="0" speed="3.65" length="4.67" shape="2253.49,3470.50 2254.19,3471.76 2254.18,3472.65 2253.46,3473.18 2252.03,3473.34"/>
    </edge>
    <edge id=":antrim_44" function="internal">
        <lane id=":antrim_44_0" index="0" speed="10.00" length="84.72" shape="2291.16,3462.00 2287.38,3431.14 2284.92,3421.31 2283.77,3432.51 2283.94,3464.74"/>
    </edge>
    <edge id=":antrim_45" function="internal">
        <lane id=":antrim_45_0" index="0" speed="10.00" length="49.80" shape="2291.16,3462.00 2288.84,3444.13 2287.03,3438.57 2285.73,3445.31 2284.93,3464.37"/>
    </edge>
    <edge id=":antrim_46" function="internal">
        <lane id=":antrim_46_0" index="0" speed="10.00" length="35.29" shape="2291.16,3462.00 2289.58,3469.98 2284.55,3478.80 2277.70,3485.65 2270.68,3487.73"/>
    </edge>
    <edge id=":antrim_47" function="internal">
        <lane id=":antrim_47_0" index="0" speed="10.00" length="40.05" shape="2288.06,3463.17 2283.94,3469.06 2273.37,3473.10 2261.13,3474.71 2252.03,3473.34"/>
    </edge>
    <edge id=":antrim_48" function="internal">
        <lane id=":antrim_48_0" index="0" speed="9.49" length="33.99" shape="2288.06,3463.17 2284.59,3467.86 2275.54,3469.10 2265.12,3467.53 2257.51,3463.78"/>
    </edge>
    <edge id=":antrim_49" function="internal">
        <lane id=":antrim_49_0" index="0" speed="9.36" length="33.41" shape="2288.06,3463.17 2284.67,3467.76 2275.81,3468.75 2265.60,3466.89 2258.17,3462.94"/>
    </edge>
    <edge id=":antrim_50" function="internal">
        <lane id=":antrim_50_0" index="0" speed="9.51" length="36.26" shape="2288.06,3463.17 2284.25,3466.43 2274.54,3464.45 2263.61,3459.50 2256.17,3453.87"/>
    </edge>
    <edge id=":antrim_51" function="internal">
        <lane id=":antrim_51_0" index="0" speed="8.84" length="32.12" shape="2284.97,3464.35 2282.01,3467.16 2274.20,3464.16 2265.28,3458.12 2259.00,3451.80"/>
    </edge>
    <edge id=":antrim_52" function="internal">
        <lane id=":antrim_52_0" index="0" speed="5.56" length="12.60" shape="2284.97,3464.35 2284.20,3467.64 2282.04,3471.10 2279.54,3473.24 2277.81,3472.59"/>
    </edge>
    <edge id=":antrim_53" function="internal">
        <lane id=":antrim_53_0" index="0" speed="4.21" length="6.81" shape="2284.97,3464.35 2284.45,3466.12 2282.99,3467.20 2281.39,3467.29 2280.45,3466.07"/>
    </edge>
    <edge id=":antrim_54" function="internal">
        <lane id=":antrim_54_0" index="0" speed="4.93" length="9.98" shape="2284.97,3464.35 2285.12,3467.43 2284.26,3469.13 2282.38,3469.46 2279.48,3468.42"/>
    </edge>
    <edge id=":antrim_55" function="internal">
        <lane id=":antrim_55_0" index="0" speed="3.24" length="3.03" shape="2283.50,3464.91 2283.71,3465.98 2283.86,3466.31 2283.93,3465.90 2283.94,3464.74"/>
    </edge>
    <edge id=":antrim_56" function="internal">
        <lane id=":antrim_56_0" index="0" speed="4.52" length="7.83" shape="2283.50,3464.91 2284.06,3467.64 2284.49,3468.45 2284.78,3467.36 2284.93,3464.37"/>
    </edge>
    <edge id=":antrim_57" function="internal">
        <lane id=":antrim_57_0" index="0" speed="10.00" length="29.02" shape="2283.50,3464.91 2283.32,3472.33 2280.86,3480.15 2276.51,3486.06 2270.68,3487.73"/>
    </edge>
    <edge id=":antrim_58" function="internal">
        <lane id=":antrim_58_0" index="0" speed="10.00" length="35.56" shape="2283.50,3464.91 2280.33,3470.50 2271.29,3473.94 2260.49,3474.97 2252.03,3473.34"/>
    </edge>
    <edge id=":antrim_59" function="internal">
        <lane id=":antrim_59_0" index="0" speed="8.79" length="29.72" shape="2283.50,3464.91 2280.93,3469.19 2273.40,3469.81 2264.41,3467.70 2257.51,3463.78"/>
    </edge>
    <edge id=":antrim_60" function="internal">
        <lane id=":antrim_60_0" index="0" speed="8.64" length="29.03" shape="2283.50,3464.91 2280.98,3468.97 2273.60,3469.32 2264.83,3466.97 2258.17,3462.94"/>
    </edge>
    <edge id=":antrim_61" function="internal">
        <lane id=":antrim_61_0" index="0" speed="8.94" length="32.67" shape="2283.50,3464.91 2280.64,3467.86 2272.46,3465.29 2262.97,3459.76 2256.17,3453.87"/>
    </edge>
    <edge id=":antrim_62" function="internal">
        <lane id=":antrim_62_0" index="0" speed="8.60" length="31.08" shape="2283.50,3464.91 2281.00,3467.59 2273.67,3464.41 2265.13,3458.19 2259.00,3451.80"/>
    </edge>
    <edge id=":antrim_63" function="internal">
        <lane id=":antrim_63_0" index="0" speed="5.20" length="11.02" shape="2283.50,3464.91 2283.00,3467.85 2281.29,3471.04 2279.26,3473.08 2277.81,3472.59"/>
    </edge>
    <edge id=":antrim_64" function="internal">
        <lane id=":antrim_64_0" index="0" speed="4.07" length="6.23" shape="2283.50,3464.91 2283.06,3466.44 2281.76,3467.97 2280.32,3468.85 2279.48,3468.42"/>
    </edge>
    <edge id=":antrim_65" function="internal">
        <lane id=":antrim_65_0" index="0" speed="3.67" length="4.76" shape="2283.50,3464.91 2283.17,3466.34 2282.56,3467.01 2281.65,3466.92 2280.45,3466.07"/>
    </edge>
    <edge id=":antrim_66" function="internal">
        <lane id=":antrim_66_0" index="0" speed="4.61" length="8.18" shape="2278.90,3466.66 2280.09,3469.39 2280.75,3470.20 2280.87,3469.09 2280.45,3466.07"/>
    </edge>
    <edge id=":antrim_67" function="internal">
        <lane id=":antrim_67_0" index="0" speed="6.25" length="15.90" shape="2278.90,3466.66 2281.22,3471.60 2282.83,3472.93 2283.73,3470.64 2283.94,3464.74"/>
    </edge>
    <edge id=":antrim_68" function="internal">
        <lane id=":antrim_68_0" index="0" speed="6.53" length="17.28" shape="2278.90,3466.66 2281.41,3471.90 2283.24,3473.27 2284.42,3470.75 2284.93,3464.37"/>
    </edge>
    <edge id=":antrim_69" function="internal">
        <lane id=":antrim_69_0" index="0" speed="8.89" length="25.43" shape="2278.90,3466.66 2279.83,3473.11 2278.61,3480.35 2275.48,3486.01 2270.68,3487.73"/>
    </edge>
    <edge id=":antrim_70" function="internal">
        <lane id=":antrim_70_0" index="0" speed="9.17" length="31.30" shape="2278.90,3466.66 2277.19,3471.76 2269.66,3474.62 2260.02,3475.18 2252.03,3473.34"/>
    </edge>
    <edge id=":antrim_71" function="internal">
        <lane id=":antrim_71_0" index="0" speed="7.72" length="24.62" shape="2278.90,3466.66 2277.40,3469.73 2271.14,3469.60 2263.41,3467.28 2257.51,3463.78"/>
    </edge>
    <edge id=":antrim_72" function="internal">
        <lane id=":antrim_72_0" index="0" speed="7.59" length="24.00" shape="2278.90,3466.66 2277.44,3469.54 2271.35,3469.13 2263.85,3466.55 2258.17,3462.94"/>
    </edge>
    <edge id=":antrim_73" function="internal">
        <lane id=":antrim_73_0" index="0" speed="8.14" length="29.13" shape="2278.90,3466.66 2277.46,3469.03 2270.76,3465.85 2262.44,3459.88 2256.17,3453.87"/>
    </edge>
    <edge id=":antrim_74" function="internal">
        <lane id=":antrim_74_0" index="0" speed="7.82" length="27.50" shape="2278.90,3466.66 2277.73,3468.55 2271.83,3464.69 2264.49,3458.10 2259.00,3451.80"/>
    </edge>
    <edge id=":antrim_75" function="internal">
        <lane id=":antrim_75_0" index="0" speed="3.01" length="2.31" shape="2278.90,3466.66 2279.17,3467.42 2279.40,3468.20 2279.53,3468.64 2279.48,3468.42"/>
    </edge>
    <edge id=":antrim_76" function="internal">
        <lane id=":antrim_76_0" index="0" speed="4.61" length="8.81" shape="2278.90,3466.66 2280.86,3468.55 2281.32,3470.17 2280.31,3471.52 2277.81,3472.59"/>
    </edge>
    <edge id=":antrim_77" function="internal">
        <lane id=":antrim_77_0" index="0" speed="3.05" length="2.42" shape="2279.07,3468.44 2279.45,3469.28 2279.65,3469.56 2279.65,3469.27 2279.48,3468.42"/>
    </edge>
    <edge id=":antrim_78" function="internal">
        <lane id=":antrim_78_0" index="0" speed="4.80" length="8.98" shape="2279.07,3468.44 2280.28,3470.97 2280.92,3471.42 2280.98,3469.79 2280.45,3466.07"/>
    </edge>
    <edge id=":antrim_79" function="internal">
        <lane id=":antrim_79_0" index="0" speed="6.25" length="15.73" shape="2279.07,3468.44 2281.31,3472.81 2282.87,3473.65 2283.75,3470.96 2283.94,3464.74"/>
    </edge>
    <edge id=":antrim_80" function="internal">
        <lane id=":antrim_80_0" index="0" speed="6.52" length="17.02" shape="2279.07,3468.44 2281.49,3473.07 2283.28,3473.94 2284.43,3471.03 2284.93,3464.37"/>
    </edge>
    <edge id=":antrim_81" function="internal">
        <lane id=":antrim_81_0" index="0" speed="8.55" length="23.69" shape="2279.07,3468.44 2279.88,3474.36 2278.48,3481.00 2275.28,3486.17 2270.68,3487.73"/>
    </edge>
    <edge id=":antrim_82" function="internal">
        <lane id=":antrim_82_0" index="0" speed="9.09" length="31.05" shape="2279.07,3468.44 2277.41,3473.23 2269.81,3475.49 2260.08,3475.44 2252.03,3473.34"/>
    </edge>
    <edge id=":antrim_83" function="internal">
        <lane id=":antrim_83_0" index="0" speed="7.75" length="25.02" shape="2279.07,3468.44 2277.65,3471.29 2271.35,3470.56 2263.51,3467.61 2257.51,3463.78"/>
    </edge>
    <edge id=":antrim_84" function="internal">
        <lane id=":antrim_84_0" index="0" speed="7.63" length="24.48" shape="2279.07,3468.44 2277.69,3471.10 2271.56,3470.11 2263.96,3466.90 2258.17,3462.94"/>
    </edge>
    <edge id=":antrim_85" function="internal">
        <lane id=":antrim_85_0" index="0" speed="8.22" length="29.99" shape="2279.07,3468.44 2277.72,3470.60 2270.98,3466.84 2262.56,3460.24 2256.17,3453.87"/>
    </edge>
    <edge id=":antrim_86" function="internal">
        <lane id=":antrim_86_0" index="0" speed="10.00" length="118.06" shape="2279.07,3468.44 2262.04,3428.50 2256.15,3415.88 2261.41,3430.57 2277.81,3472.59"/>
    </edge>
    <edge id=":antrim_87" function="internal">
        <lane id=":antrim_87_0" index="0" speed="9.08" length="38.07" shape="2279.07,3468.44 2267.81,3471.81 2260.71,3470.16 2257.78,3463.49 2259.00,3451.80"/>
    </edge>
    <edge id=":athlone_0" function="internal">
        <lane id=":athlone_0_0" index="0" speed="8.52" length="28.94" shape="1255.23,1983.75 1253.64,1980.81 1250.84,1983.05 1246.85,1990.46 1241.66,2003.04"/>
    </edge>
    <edge id=":athlone_1" function="internal">
        <lane id=":athlone_1_0" index="0" speed="10.00" length="38.63" shape="1255.23,1983.75 1254.47,1974.07 1255.76,1964.79 1259.09,1955.90 1264.47,1947.40"/>
    </edge>
    <edge id=":athlone_2" function="internal">
        <lane id=":athlone_2_0" index="0" speed="10.00" length="46.04" shape="1255.23,1983.75 1255.25,1973.17 1259.36,1963.93 1267.57,1956.03 1279.88,1949.46"/>
    </edge>
    <edge id=":athlone_3" function="internal">
        <lane id=":athlone_3_0" index="0" speed="10.00" length="50.29" shape="1255.23,1983.75 1255.66,1973.05 1261.10,1964.11 1271.58,1956.94 1287.08,1951.51"/>
    </edge>
    <edge id=":athlone_4" function="internal">
        <lane id=":athlone_4_0" index="0" speed="10.00" length="42.08" shape="1258.38,1983.18 1261.14,1975.70 1269.24,1966.69 1279.25,1958.90 1287.75,1955.10"/>
    </edge>
    <edge id=":athlone_5" function="internal">
        <lane id=":athlone_5_0" index="0" speed="9.66" length="28.59" shape="1258.38,1983.18 1259.45,1976.52 1263.89,1970.21 1270.14,1965.92 1276.66,1965.31"/>
    </edge>
    <edge id=":athlone_6" function="internal">
        <lane id=":athlone_6_0" index="0" speed="6.80" length="18.42" shape="1258.38,1983.18 1259.16,1978.48 1262.50,1975.78 1266.93,1975.58 1270.97,1978.40"/>
    </edge>
    <edge id=":athlone_7" function="internal">
        <lane id=":athlone_7_0" index="0" speed="3.27" length="3.29" shape="1258.38,1983.18 1261.62,1982.59"/>
    </edge>
    <edge id=":athlone_8" function="internal">
        <lane id=":athlone_8_0" index="0" speed="3.65" length="4.67" shape="1258.38,1983.18 1258.96,1981.85 1259.67,1981.32 1260.53,1981.57 1261.53,1982.61"/>
    </edge>
    <edge id=":athlone_9" function="internal">
        <lane id=":athlone_9_0" index="0" speed="9.31" length="34.87" shape="1258.47,1983.16 1256.29,1978.30 1252.76,1980.00 1247.89,1988.24 1241.66,2003.04"/>
    </edge>
    <edge id=":athlone_10" function="internal">
        <lane id=":athlone_10_0" index="0" speed="10.00" length="37.31" shape="1258.47,1983.16 1257.28,1972.46 1257.88,1962.94 1260.28,1954.58 1264.47,1947.40"/>
    </edge>
    <edge id=":athlone_11" function="internal">
        <lane id=":athlone_11_0" index="0" speed="10.00" length="43.69" shape="1258.47,1983.16 1258.20,1972.37 1261.68,1963.16 1268.91,1955.52 1279.88,1949.46"/>
    </edge>
    <edge id=":athlone_12" function="internal">
        <lane id=":athlone_12_0" index="0" speed="10.00" length="47.61" shape="1258.47,1983.16 1258.64,1972.43 1263.47,1963.58 1272.95,1956.60 1287.08,1951.51"/>
    </edge>
    <edge id=":athlone_13" function="internal">
        <lane id=":athlone_13_0" index="0" speed="10.00" length="42.02" shape="1258.47,1983.16 1261.20,1975.68 1269.27,1966.68 1279.26,1958.90 1287.75,1955.10"/>
    </edge>
    <edge id=":athlone_14" function="internal">
        <lane id=":athlone_14_0" index="0" speed="9.64" length="28.52" shape="1258.47,1983.16 1259.51,1976.52 1263.93,1970.22 1270.16,1965.93 1276.66,1965.31"/>
    </edge>
    <edge id=":athlone_15" function="internal">
        <lane id=":athlone_15_0" index="0" speed="6.31" length="15.59" shape="1258.47,1983.16 1259.71,1980.07 1263.42,1977.80 1267.78,1977.02 1270.97,1978.40"/>
    </edge>
    <edge id=":athlone_16" function="internal">
        <lane id=":athlone_16_0" index="0" speed="10.00" length="774.42" shape="1258.47,1983.16 1311.46,2268.69 1329.64,2363.78 1312.99,2268.41 1261.53,1982.61"/>
    </edge>
    <edge id=":athlone_17" function="internal">
        <lane id=":athlone_17_0" index="0" speed="3.65" length="4.67" shape="1258.47,1983.16 1259.04,1981.84 1259.76,1981.30 1260.62,1981.55 1261.62,1982.59"/>
    </edge>
    <edge id=":athlone_18" function="internal">
        <lane id=":athlone_18_0" index="0" speed="9.70" length="36.60" shape="1260.42,1982.81 1257.50,1977.81 1253.40,1979.51 1248.12,1987.92 1241.66,2003.04"/>
    </edge>
    <edge id=":athlone_19" function="internal">
        <lane id=":athlone_19_0" index="0" speed="10.00" length="36.94" shape="1260.42,1982.81 1258.36,1972.29 1258.35,1962.88 1260.38,1954.59 1264.47,1947.40"/>
    </edge>
    <edge id=":athlone_20" function="internal">
        <lane id=":athlone_20_0" index="0" speed="10.00" length="42.91" shape="1260.42,1982.81 1259.26,1972.19 1262.11,1963.10 1268.99,1955.52 1279.88,1949.46"/>
    </edge>
    <edge id=":athlone_21" function="internal">
        <lane id=":athlone_21_0" index="0" speed="10.00" length="42.50" shape="1260.42,1982.81 1262.50,1975.08 1269.74,1965.18 1278.99,1956.27 1287.08,1951.51"/>
    </edge>
    <edge id=":athlone_22" function="internal">
        <lane id=":athlone_22_0" index="0" speed="10.00" length="40.64" shape="1260.42,1982.81 1262.52,1975.30 1269.95,1966.43 1279.45,1958.81 1287.75,1955.10"/>
    </edge>
    <edge id=":athlone_23" function="internal">
        <lane id=":athlone_23_0" index="0" speed="9.15" length="26.88" shape="1260.42,1982.81 1260.98,1976.53 1264.87,1970.36 1270.60,1966.03 1276.66,1965.31"/>
    </edge>
    <edge id=":athlone_24" function="internal">
        <lane id=":athlone_24_0" index="0" speed="5.81" length="13.38" shape="1260.42,1982.81 1261.32,1980.14 1264.46,1978.08 1268.22,1977.28 1270.97,1978.40"/>
    </edge>
    <edge id=":athlone_25" function="internal">
        <lane id=":athlone_25_0" index="0" speed="5.61" length="13.71" shape="1260.42,1982.81 1261.87,1987.74 1262.56,1989.34 1262.47,1987.63 1261.62,1982.59"/>
    </edge>
    <edge id=":athlone_26" function="internal">
        <lane id=":athlone_26_0" index="0" speed="5.33" length="12.16" shape="1260.42,1982.81 1261.71,1987.18 1262.33,1988.60 1262.27,1987.08 1261.53,1982.61"/>
    </edge>
    <edge id=":athlone_27" function="internal">
        <lane id=":athlone_27_0" index="0" speed="9.59" length="36.13" shape="1259.89,1982.91 1257.17,1977.94 1253.23,1979.63 1248.06,1988.00 1241.66,2003.04"/>
    </edge>
    <edge id=":athlone_28" function="internal">
        <lane id=":athlone_28_0" index="0" speed="10.00" length="37.03" shape="1259.89,1982.91 1258.06,1972.34 1258.22,1962.90 1260.36,1954.59 1264.47,1947.40"/>
    </edge>
    <edge id=":athlone_29" function="internal">
        <lane id=":athlone_29_0" index="0" speed="10.00" length="43.11" shape="1259.89,1982.91 1258.97,1972.24 1262.00,1963.11 1268.97,1955.52 1279.88,1949.46"/>
    </edge>
    <edge id=":athlone_30" function="internal">
        <lane id=":athlone_30_0" index="0" speed="10.00" length="42.86" shape="1259.89,1982.91 1262.14,1975.18 1269.55,1965.25 1278.93,1956.29 1287.08,1951.51"/>
    </edge>
    <edge id=":athlone_31" function="internal">
        <lane id=":athlone_31_0" index="0" speed="10.00" length="41.01" shape="1259.89,1982.91 1262.16,1975.40 1269.77,1966.49 1279.40,1958.84 1287.75,1955.10"/>
    </edge>
    <edge id=":athlone_32" function="internal">
        <lane id=":athlone_32_0" index="0" speed="9.28" length="27.33" shape="1259.89,1982.91 1260.58,1976.52 1264.61,1970.32 1270.48,1966.00 1276.66,1965.31"/>
    </edge>
    <edge id=":athlone_33" function="internal">
        <lane id=":athlone_33_0" index="0" speed="5.94" length="13.99" shape="1259.89,1982.91 1260.87,1980.12 1264.17,1978.00 1268.10,1977.21 1270.97,1978.40"/>
    </edge>
    <edge id=":athlone_34" function="internal">
        <lane id=":athlone_34_0" index="0" speed="7.58" length="27.18" shape="1259.89,1982.91 1262.49,1992.76 1263.65,1995.99 1263.36,1992.60 1261.62,1982.59"/>
    </edge>
    <edge id=":athlone_35" function="internal">
        <lane id=":athlone_35_0" index="0" speed="7.21" length="24.30" shape="1259.89,1982.91 1262.22,1991.71 1263.27,1994.59 1263.04,1991.56 1261.53,1982.61"/>
    </edge>
    <edge id=":athlone_36" function="internal">
        <lane id=":athlone_36_0" index="0" speed="5.95" length="14.29" shape="1266.27,1981.87 1263.35,1977.39 1261.60,1976.01 1261.02,1977.75 1261.62,1982.59"/>
    </edge>
    <edge id=":athlone_37" function="internal">
        <lane id=":athlone_37_0" index="0" speed="5.98" length="14.42" shape="1266.27,1981.87 1263.32,1977.35 1261.55,1975.97 1260.95,1977.72 1261.53,1982.61"/>
    </edge>
    <edge id=":athlone_38" function="internal">
        <lane id=":athlone_38_0" index="0" speed="10.00" length="41.56" shape="1266.27,1981.87 1260.99,1976.76 1255.13,1978.58 1248.69,1987.34 1241.66,2003.04"/>
    </edge>
    <edge id=":athlone_39" function="internal">
        <lane id=":athlone_39_0" index="0" speed="10.00" length="36.69" shape="1266.27,1981.87 1261.58,1971.84 1259.72,1962.76 1260.69,1954.61 1264.47,1947.40"/>
    </edge>
    <edge id=":athlone_40" function="internal">
        <lane id=":athlone_40_0" index="0" speed="10.00" length="37.17" shape="1266.27,1981.87 1265.36,1974.04 1268.32,1964.05 1273.66,1954.87 1279.88,1949.46"/>
    </edge>
    <edge id=":athlone_41" function="internal">
        <lane id=":athlone_41_0" index="0" speed="10.00" length="39.00" shape="1266.27,1981.87 1266.43,1974.19 1271.77,1964.63 1279.57,1956.09 1287.08,1951.51"/>
    </edge>
    <edge id=":athlone_42" function="internal">
        <lane id=":athlone_42_0" index="0" speed="10.00" length="36.84" shape="1266.27,1981.87 1266.50,1974.61 1272.03,1966.05 1280.05,1958.70 1287.75,1955.10"/>
    </edge>
    <edge id=":athlone_43" function="internal">
        <lane id=":athlone_43_0" index="0" speed="8.47" length="25.89" shape="1266.27,1981.87 1264.12,1974.90 1265.51,1968.94 1269.87,1965.30 1276.66,1965.31"/>
    </edge>
    <edge id=":athlone_44" function="internal">
        <lane id=":athlone_44_0" index="0" speed="4.56" length="8.22" shape="1266.27,1981.87 1266.04,1979.78 1267.28,1978.11 1269.19,1977.45 1270.97,1978.40"/>
    </edge>