<?xml version="1.0" encoding="UTF-8"?>

<!-- generated on 2024-09-30 21:13:09 by Eclipse SUMO netconvert Version 1.18.0
<configuration xmlns:xsi="http://www.w3.org/2001/XMLSchema-instance" xsi:noNamespaceSchemaLocation="http://sumo.dlr.de/xsd/netconvertConfiguration.xsd">

    <input>
        <node-files value="nod.xml"/>
        <edge-files value="edge_xmls/03803.xml"/>
    </input>

    <output>
        <output-file value="networks/03803.net.xml"/>
    </output>

</configuration>
-->

<net version="1.16" junctionCornerDetail="5" limitTurnSpeed="5.50" xmlns:xsi="http://www.w3.org/2001/XMLSchema-instance" xsi:noNamespaceSchemaLocation="http://sumo.dlr.de/xsd/net_file.xsd">

    <location netOffset="-682.00,4368.00" convBoundary="0.00,0.00,2498.00,3881.00" origBoundary="682.00,-4368.00,3180.00,-487.00" projParameter="!"/>

    <edge id=":antrim_0" function="internal">
        <lane id=":antrim_0_0" index="0" speed="10.00" length="23.98" shape="2294.85,3485.49 2290.14,3487.46 2284.71,3488.08 2278.54,3487.36 2271.65,3485.29"/>
    </edge>
    <edge id=":antrim_1" function="internal">
        <lane id=":antrim_1_0" index="0" speed="10.00" length="27.98" shape="2294.85,3485.49 2289.90,3487.07 2284.01,3486.36 2277.19,3483.36 2269.43,3478.06"/>
    </edge>
    <edge id=":antrim_2" function="internal">
        <lane id=":antrim_2_0" index="0" speed="10.00" length="28.52" shape="2294.85,3485.49 2288.85,3487.64 2282.89,3486.79 2276.96,3482.93 2271.08,3476.05"/>
    </edge>
    <edge id=":antrim_3" function="internal">
        <lane id=":antrim_3_0" index="0" speed="10.00" length="27.14" shape="2294.85,3485.49 2290.02,3486.85 2284.83,3485.25 2279.30,3480.70 2273.42,3473.20"/>
    </edge>
    <edge id=":antrim_4" function="internal">
        <lane id=":antrim_4_0" index="0" speed="10.00" length="28.45" shape="2294.85,3485.49 2288.87,3487.60 2283.05,3486.57 2277.39,3482.39 2271.90,3475.06"/>
    </edge>
    <edge id=":antrim_5" function="internal">
        <lane id=":antrim_5_0" index="0" speed="9.80" length="27.06" shape="2294.85,3485.49 2289.38,3486.68 2285.17,3483.49 2281.96,3477.03 2279.48,3468.42"/>
    </edge>
    <edge id=":antrim_6" function="internal">
        <lane id=":antrim_6_0" index="0" speed="8.88" length="23.66" shape="2294.85,3485.49 2290.83,3485.05 2286.87,3480.54 2283.73,3474.09 2282.13,3467.86"/>
    </edge>
    <edge id=":antrim_7" function="internal">
        <lane id=":antrim_7_0" index="0" speed="7.08" length="15.59" shape="2294.85,3485.49 2291.58,3485.68 2288.25,3483.42 2285.67,3479.85 2284.68,3476.10"/>
    </edge>
    <edge id=":antrim_8" function="internal">
        <lane id=":antrim_8_0" index="0" speed="6.84" length="14.96" shape="2294.85,3485.49 2291.75,3485.61 2288.63,3483.31 2286.29,3479.75 2285.52,3476.11"/>
    </edge>
    <edge id=":antrim_9" function="internal">
        <lane id=":antrim_9_0" index="0" speed="8.67" length="23.27" shape="2294.85,3485.49 2290.93,3485.01 2287.31,3480.37 2284.59,3473.82 2283.38,3467.59"/>
    </edge>
    <edge id=":antrim_10" function="internal">
        <lane id=":antrim_10_0" index="0" speed="3.65" length="4.67" shape="2294.85,3485.49 2293.41,3485.43 2292.65,3484.95 2292.58,3484.06 2293.19,3482.75"/>
    </edge>
    <edge id=":antrim_11" function="internal">
        <lane id=":antrim_11_0" index="0" speed="6.34" length="11.75" shape="2286.99,3476.14 2287.56,3480.34 2288.78,3482.84 2290.66,3483.64 2293.19,3482.75"/>
    </edge>
    <edge id=":antrim_12" function="internal">
        <lane id=":antrim_12_0" index="0" speed="8.25" length="19.89" shape="2286.99,3476.14 2285.49,3480.37 2281.51,3483.73 2276.44,3485.58 2271.65,3485.29"/>
    </edge>
    <edge id=":antrim_13" function="internal">
        <lane id=":antrim_13_0" index="0" speed="7.68" length="20.03" shape="2286.99,3476.14 2285.01,3479.43 2280.05,3480.67 2274.17,3480.12 2269.43,3478.06"/>
    </edge>
    <edge id=":antrim_14" function="internal">
        <lane id=":antrim_14_0" index="0" speed="6.93" length="18.36" shape="2286.99,3476.14 2285.04,3478.97 2280.27,3479.71 2274.88,3478.64 2271.08,3476.05"/>
    </edge>
    <edge id=":antrim_15" function="internal">
        <lane id=":antrim_15_0" index="0" speed="6.47" length="15.92" shape="2286.99,3476.14 2285.32,3478.17 2281.26,3477.84 2276.66,3475.93 2273.42,3473.20"/>
    </edge>
    <edge id=":antrim_16" function="internal">
        <lane id=":antrim_16_0" index="0" speed="6.70" length="17.50" shape="2286.99,3476.14 2285.10,3478.70 2280.52,3479.10 2275.39,3477.75 2271.90,3475.06"/>
    </edge>
    <edge id=":antrim_17" function="internal">
        <lane id=":antrim_17_0" index="0" speed="5.40" length="12.14" shape="2286.99,3476.14 2286.00,3476.94 2283.61,3474.94 2281.03,3471.61 2279.48,3468.42"/>
    </edge>
    <edge id=":antrim_18" function="internal">
        <lane id=":antrim_18_0" index="0" speed="5.01" length="10.64" shape="2286.99,3476.14 2286.34,3476.64 2284.74,3474.39 2283.05,3470.95 2282.13,3467.86"/>
    </edge>
    <edge id=":antrim_19" function="internal">
        <lane id=":antrim_19_0" index="0" speed="8.36" length="33.46" shape="2286.99,3476.14 2286.25,3463.62 2285.61,3459.44 2285.09,3463.60 2284.68,3476.10"/>
    </edge>
    <edge id=":antrim_20" function="internal">
        <lane id=":antrim_20_0" index="0" speed="5.14" length="10.98" shape="2286.99,3476.14 2286.70,3472.07 2286.36,3470.70 2285.97,3472.05 2285.52,3476.11"/>
    </edge>
    <edge id=":antrim_21" function="internal">
        <lane id=":antrim_21_0" index="0" speed="5.50" length="13.55" shape="2286.99,3476.14 2282.88,3475.36 2280.91,3473.67 2281.07,3471.08 2283.38,3467.59"/>
    </edge>
    <edge id=":antrim_22" function="internal">
        <lane id=":antrim_22_0" index="0" speed="6.24" length="11.53" shape="2287.35,3476.15 2287.79,3480.33 2288.91,3482.82 2290.71,3483.63 2293.19,3482.75"/>
    </edge>
    <edge id=":antrim_23" function="internal">
        <lane id=":antrim_23_0" index="0" speed="8.38" length="20.20" shape="2287.35,3476.15 2285.75,3480.43 2281.67,3483.79 2276.51,3485.61 2271.65,3485.29"/>
    </edge>
    <edge id=":antrim_24" function="internal">
        <lane id=":antrim_24_0" index="0" speed="7.79" length="20.41" shape="2287.35,3476.15 2285.27,3479.50 2280.21,3480.75 2274.24,3480.17 2269.43,3478.06"/>
    </edge>
    <edge id=":antrim_25" function="internal">
        <lane id=":antrim_25_0" index="0" speed="7.03" length="18.76" shape="2287.35,3476.15 2285.29,3479.05 2280.42,3479.80 2274.95,3478.70 2271.08,3476.05"/>
    </edge>
    <edge id=":antrim_26" function="internal">
        <lane id=":antrim_26_0" index="0" speed="6.58" length="16.32" shape="2287.35,3476.15 2285.59,3478.24 2281.42,3477.93 2276.73,3475.99 2273.42,3473.20"/>
    </edge>
    <edge id=":antrim_27" function="internal">
        <lane id=":antrim_27_0" index="0" speed="6.80" length="17.90" shape="2287.35,3476.15 2285.36,3478.78 2280.67,3479.19 2275.46,3477.82 2271.90,3475.06"/>
    </edge>
    <edge id=":antrim_28" function="internal">
        <lane id=":antrim_28_0" index="0" speed="5.49" length="12.48" shape="2287.35,3476.15 2286.27,3477.00 2283.76,3475.01 2281.08,3471.66 2279.48,3468.42"/>
    </edge>
    <edge id=":antrim_29" function="internal">
        <lane id=":antrim_29_0" index="0" speed="10.00" length="65.92" shape="2287.35,3476.15 2286.71,3451.44 2286.06,3443.20 2285.38,3451.42 2284.68,3476.10"/>
    </edge>
    <edge id=":antrim_30" function="internal">
        <lane id=":antrim_30_0" index="0" speed="6.23" length="17.33" shape="2287.35,3476.15 2287.12,3469.69 2286.73,3467.53 2286.20,3469.67 2285.52,3476.11"/>
    </edge>
    <edge id=":antrim_31" function="internal">
        <lane id=":antrim_31_0" index="0" speed="4.75" length="9.43" shape="2287.35,3476.15 2283.38,3467.59"/>
    </edge>
    <edge id=":antrim_32" function="internal">
        <lane id=":antrim_32_0" index="0" speed="5.71" length="14.31" shape="2287.35,3476.15 2282.94,3476.04 2280.60,3474.62 2280.33,3471.89 2282.13,3467.86"/>
    </edge>
    <edge id=":antrim_33" function="internal">
        <lane id=":antrim_33_0" index="0" speed="6.11" length="11.24" shape="2287.88,3476.16 2288.13,3480.30 2289.10,3482.79 2290.78,3483.60 2293.19,3482.75"/>
    </edge>
    <edge id=":antrim_34" function="internal">
        <lane id=":antrim_34_0" index="0" speed="8.56" length="20.64" shape="2287.88,3476.16 2286.10,3480.51 2281.89,3483.87 2276.62,3485.66 2271.65,3485.29"/>
    </edge>
    <edge id=":antrim_35" function="internal">
        <lane id=":antrim_35_0" index="0" speed="7.97" length="20.95" shape="2287.88,3476.16 2285.62,3479.60 2280.43,3480.86 2274.35,3480.24 2269.43,3478.06"/>
    </edge>
    <edge id=":antrim_36" function="internal">
        <lane id=":antrim_36_0" index="0" speed="6.80" length="17.09" shape="2287.88,3476.16 2285.94,3478.41 2281.56,3478.21 2276.67,3476.32 2273.19,3473.48"/>
    </edge>
    <edge id=":antrim_37" function="internal">
        <lane id=":antrim_37_0" index="0" speed="6.74" length="16.90" shape="2287.88,3476.16 2285.96,3478.34 2281.64,3478.05 2276.82,3476.08 2273.42,3473.20"/>
    </edge>
    <edge id=":antrim_38" function="internal">
        <lane id=":antrim_38_0" index="0" speed="6.59" length="16.41" shape="2287.88,3476.16 2286.02,3478.16 2281.85,3477.62 2277.24,3475.41 2274.05,3472.44"/>
    </edge>
    <edge id=":antrim_39" function="internal">
        <lane id=":antrim_39_0" index="0" speed="5.62" length="12.96" shape="2287.88,3476.16 2286.65,3477.08 2283.98,3475.11 2281.15,3471.73 2279.48,3468.42"/>
    </edge>
    <edge id=":antrim_40" function="internal">
        <lane id=":antrim_40_0" index="0" speed="5.20" length="11.32" shape="2287.88,3476.16 2287.00,3476.75 2285.11,3474.53 2283.17,3471.04 2282.13,3467.86"/>
    </edge>
    <edge id=":antrim_41" function="internal">
        <lane id=":antrim_41_0" index="0" speed="8.63" length="35.88" shape="2287.88,3476.16 2288.02,3462.75 2287.67,3458.27 2286.84,3462.73 2285.52,3476.11"/>
    </edge>
    <edge id=":antrim_42" function="internal">
        <lane id=":antrim_42_0" index="0" speed="5.04" length="10.74" shape="2287.88,3476.16 2287.17,3476.63 2285.66,3474.29 2284.13,3470.74 2283.38,3467.59"/>
    </edge>
    <edge id=":antrim_43" function="internal">
        <lane id=":antrim_43_0" index="0" speed="3.65" length="4.67" shape="2287.88,3476.16 2287.05,3477.34 2286.25,3477.73 2285.45,3477.31 2284.68,3476.10"/>
    </edge>
    <edge id=":antrim_44" function="internal">
        <lane id=":antrim_44_0" index="0" speed="4.88" length="9.04" shape="2285.74,3467.09 2285.88,3468.31 2285.89,3470.22 2285.77,3472.82 2285.52,3476.11"/>
    </edge>
    <edge id=":antrim_45" function="internal">
        <lane id=":antrim_45_0" index="0" speed="7.96" length="29.54" shape="2285.74,3467.09 2282.99,3456.48 2281.47,3453.07 2281.18,3456.86 2282.13,3467.86"/>
    </edge>
    <edge id=":antrim_46" function="internal">
        <lane id=":antrim_46_0" index="0" speed="5.61" length="13.29" shape="2285.74,3467.09 2284.47,3462.39 2283.65,3460.90 2283.29,3462.64 2283.38,3467.59"/>
    </edge>
    <edge id=":antrim_47" function="internal">
        <lane id=":antrim_47_0" index="0" speed="8.15" length="18.30" shape="2285.74,3467.09 2287.77,3474.69 2289.69,3479.83 2291.50,3482.52 2293.19,3482.75"/>
    </edge>
    <edge id=":antrim_48" function="internal">
        <lane id=":antrim_48_0" index="0" speed="8.91" length="25.96" shape="2285.74,3467.09 2285.29,3473.46 2282.05,3480.00 2277.13,3484.64 2271.65,3485.29"/>
    </edge>
    <edge id=":antrim_49" function="internal">
        <lane id=":antrim_49_0" index="0" speed="7.24" length="19.26" shape="2282.61,3467.76 2281.71,3472.14 2278.15,3476.23 2273.52,3478.66 2269.43,3478.06"/>
    </edge>
    <edge id=":antrim_50" function="internal">
        <lane id=":antrim_50_0" index="0" speed="5.72" length="12.89" shape="2282.61,3467.76 2281.79,3470.58 2279.01,3473.09 2275.67,3474.36 2273.19,3473.48"/>
    </edge>
    <edge id=":antrim_51" function="internal">
        <lane id=":antrim_51_0" index="0" speed="5.63" length="12.50" shape="2282.61,3467.76 2281.80,3470.48 2279.07,3472.89 2275.81,3474.08 2273.42,3473.20"/>
    </edge>
    <edge id=":antrim_52" function="internal">
        <lane id=":antrim_52_0" index="0" speed="5.38" length="11.45" shape="2282.61,3467.76 2281.83,3470.21 2279.24,3472.33 2276.20,3473.32 2274.05,3472.44"/>
    </edge>
    <edge id=":antrim_53" function="internal">
        <lane id=":antrim_53_0" index="0" speed="5.07" length="10.16" shape="2282.61,3467.76 2282.21,3466.89 2281.89,3467.98 2281.65,3471.03 2281.48,3476.03"/>
    </edge>
    <edge id=":antrim_54" function="internal">
        <lane id=":antrim_54_0" index="0" speed="3.65" length="4.67" shape="2282.61,3467.76 2282.08,3469.10 2281.38,3469.65 2280.51,3469.43 2279.48,3468.42"/>
    </edge>
    <edge id=":antrim_55" function="internal">
        <lane id=":antrim_55_0" index="0" speed="6.30" length="16.60" shape="2284.86,3467.28 2283.54,3463.88 2282.53,3464.20 2281.85,3468.25 2281.48,3476.03"/>
    </edge>
    <edge id=":antrim_56" function="internal">
        <lane id=":antrim_56_0" index="0" speed="4.88" length="8.90" shape="2284.86,3467.28 2285.31,3469.28 2285.57,3471.42 2285.64,3473.70 2285.52,3476.11"/>
    </edge>
    <edge id=":antrim_57" function="internal">
        <lane id=":antrim_57_0" index="0" speed="6.22" length="16.88" shape="2284.86,3467.28 2283.00,3461.32 2281.93,3459.43 2281.63,3461.61 2282.13,3467.86"/>
    </edge>
    <edge id=":antrim_58" function="internal">
        <lane id=":antrim_58_0" index="0" speed="4.32" length="6.87" shape="2284.86,3467.28 2284.09,3464.89 2283.59,3464.15 2283.35,3465.05 2283.38,3467.59"/>
    </edge>
    <edge id=":antrim_59" function="internal">
        <lane id=":antrim_59_0" index="0" speed="8.30" length="18.55" shape="2284.86,3467.28 2287.24,3474.82 2289.42,3479.91 2291.40,3482.56 2293.19,3482.75"/>
    </edge>
    <edge id=":antrim_60" function="internal">
        <lane id=":antrim_60_0" index="0" speed="8.27" length="22.66" shape="2281.73,3467.94 2281.80,3473.70 2279.71,3479.92 2276.12,3484.48 2271.65,3485.29"/>
    </edge>
    <edge id=":antrim_61" function="internal">
        <lane id=":antrim_61_0" index="0" speed="7.03" length="18.38" shape="2281.73,3467.94 2281.00,3472.14 2277.68,3476.14 2273.32,3478.58 2269.43,3478.06"/>
    </edge>
    <edge id=":antrim_62" function="internal">
        <lane id=":antrim_62_0" index="0" speed="5.49" length="11.92" shape="2281.73,3467.94 2281.05,3470.58 2278.53,3472.98 2275.47,3474.25 2273.19,3473.48"/>
    </edge>
    <edge id=":antrim_63" function="internal">
        <lane id=":antrim_63_0" index="0" speed="5.40" length="11.52" shape="2281.73,3467.94 2281.06,3470.48 2278.59,3472.77 2275.62,3473.97 2273.42,3473.20"/>
    </edge>
    <edge id=":antrim_64" function="internal">
        <lane id=":antrim_64_0" index="0" speed="5.14" length="10.45" shape="2281.73,3467.94 2281.08,3470.21 2278.77,3472.21 2276.01,3473.21 2274.05,3472.44"/>
    </edge>
    <edge id=":antrim_65" function="internal">
        <lane id=":antrim_65_0" index="0" speed="10.00" length="54.49" shape="2281.73,3467.94 2276.04,3448.31 2273.77,3441.84 2274.92,3448.55 2279.48,3468.42"/>
    </edge>
    <edge id=":antrim_66" function="internal">
        <lane id=":antrim_66_0" index="0" speed="6.56" length="19.10" shape="2282.43,3467.80 2279.52,3461.25 2278.06,3459.17 2278.05,3461.56 2279.48,3468.42"/>
    </edge>
    <edge id=":antrim_67" function="internal">
        <lane id=":antrim_67_0" index="0" speed="2.60" length="1.12" shape="2282.43,3467.80 2282.25,3467.42 2282.15,3467.31 2282.10,3467.46 2282.13,3467.86"/>
    </edge>
    <edge id=":antrim_68" function="internal">
        <lane id=":antrim_68_0" index="0" speed="4.90" length="8.79" shape="2282.43,3467.80 2282.09,3467.64 2281.82,3468.97 2281.62,3471.76 2281.48,3476.03"/>
    </edge>
    <edge id=":antrim_69" function="internal">
        <lane id=":antrim_69_0" index="0" speed="4.98" length="8.89" shape="2282.43,3467.80 2283.06,3469.62 2284.09,3472.67 2285.06,3475.36 2285.52,3476.11"/>
    </edge>
    <edge id=":antrim_70" function="internal">
        <lane id=":antrim_70_0" index="0" speed="3.30" length="2.99" shape="2282.43,3467.80 2282.89,3468.76 2283.21,3469.05 2283.37,3468.66 2283.38,3467.59"/>
    </edge>
    <edge id=":antrim_71" function="internal">
        <lane id=":antrim_71_0" index="0" speed="8.80" length="19.42" shape="2282.43,3467.80 2285.76,3475.17 2288.67,3480.13 2291.14,3482.65 2293.19,3482.75"/>
    </edge>
    <edge id=":antrim_72" function="internal">
        <lane id=":antrim_72_0" index="0" speed="8.30" length="24.19" shape="2279.25,3468.47 2281.06,3475.61 2280.51,3481.79 2277.43,3485.52 2271.65,3485.29"/>
    </edge>
    <edge id=":antrim_73" function="internal">
        <lane id=":antrim_73_0" index="0" speed="6.91" length="18.66" shape="2279.25,3468.47 2279.78,3473.60 2277.68,3477.67 2273.90,3479.54 2269.43,3478.06"/>
    </edge>
    <edge id=":antrim_74" function="internal">
        <lane id=":antrim_74_0" index="0" speed="4.85" length="9.24" shape="2279.25,3468.47 2278.93,3470.58 2277.16,3472.69 2274.91,3473.95 2273.19,3473.48"/>
    </edge>
    <edge id=":antrim_75" function="internal">
        <lane id=":antrim_75_0" index="0" speed="4.75" length="8.83" shape="2279.25,3468.47 2278.94,3470.48 2277.22,3472.48 2275.05,3473.66 2273.42,3473.20"/>
    </edge>
    <edge id=":antrim_76" function="internal">
        <lane id=":antrim_76_0" index="0" speed="4.87" length="9.55" shape="2279.25,3468.47 2279.43,3471.41 2278.63,3473.05 2276.83,3473.40 2274.05,3472.44"/>
    </edge>
    <edge id=":antrim_77" function="internal">
        <lane id=":antrim_77_0" index="0" speed="5.79" length="13.32" shape="2275.54,3470.62 2278.37,3474.31 2279.96,3475.17 2280.34,3473.21 2279.48,3468.42"/>
    </edge>
    <edge id=":antrim_78" function="internal">
        <lane id=":antrim_78_0" index="0" speed="6.49" length="16.42" shape="2275.54,3470.62 2279.02,3475.00 2281.28,3476.00 2282.31,3473.62 2282.13,3467.86"/>
    </edge>
    <edge id=":antrim_79" function="internal">
        <lane id=":antrim_79_0" index="0" speed="5.24" length="9.48" shape="2275.54,3470.62 2278.11,3474.22 2279.96,3476.33 2281.08,3476.93 2281.48,3476.03"/>
    </edge>
    <edge id=":antrim_80" function="internal">
        <lane id=":antrim_80_0" index="0" speed="6.63" length="15.79" shape="2275.54,3470.62 2279.64,3476.12 2282.67,3478.86 2284.63,3478.86 2285.52,3476.11"/>
    </edge>
    <edge id=":antrim_81" function="internal">
        <lane id=":antrim_81_0" index="0" speed="6.78" length="17.64" shape="2275.54,3470.62 2279.25,3475.21 2281.79,3476.23 2283.17,3473.70 2283.38,3467.59"/>
    </edge>
    <edge id=":antrim_82" function="internal">
        <lane id=":antrim_82_0" index="0" speed="10.00" length="23.16" shape="2275.54,3470.62 2280.74,3477.46 2285.42,3481.76 2289.57,3483.53 2293.19,3482.75"/>
    </edge>
    <edge id=":antrim_83" function="internal">
        <lane id=":antrim_83_0" index="0" speed="6.84" length="17.42" shape="2275.54,3470.62 2276.79,3474.93 2276.43,3480.20 2274.65,3484.34 2271.65,3485.29"/>
    </edge>
    <edge id=":antrim_84" function="internal">
        <lane id=":antrim_84_0" index="0" speed="5.74" length="13.34" shape="2275.54,3470.62 2276.44,3474.12 2275.19,3477.24 2272.58,3478.91 2269.43,3478.06"/>
    </edge>
    <edge id=":antrim_85" function="internal">
        <lane id=":antrim_85_0" index="0" speed="3.39" length="3.70" shape="2275.54,3470.62 2273.19,3473.48"/>
    </edge>
    <edge id=":antrim_86" function="internal">
        <lane id=":antrim_86_0" index="0" speed="9.91" length="48.29" shape="2275.54,3470.62 2265.41,3455.85 2261.79,3451.23 2264.67,3456.76 2274.05,3472.44"/>
    </edge>
    <edge id=":antrim_87" function="internal">
        <lane id=":antrim_87_0" index="0" speed="3.70" length="4.88" shape="2275.54,3470.62 2275.98,3472.06 2275.77,3472.97 2274.92,3473.35 2273.42,3473.20"/>
    </edge>
    <edge id=":antrim_88" function="internal">
        <lane id=":antrim_88_0" index="0" speed="5.89" length="13.77" shape="2275.30,3470.91 2278.27,3474.63 2279.95,3475.45 2280.36,3473.38 2279.48,3468.42"/>
    </edge>
    <edge id=":antrim_89" function="internal">
        <lane id=":antrim_89_0" index="0" speed="6.56" length="16.71" shape="2275.30,3470.91 2278.89,3475.25 2281.23,3476.19 2282.31,3473.72 2282.13,3467.86"/>
    </edge>
    <edge id=":antrim_90" function="internal">
        <lane id=":antrim_90_0" index="0" speed="6.42" length="15.07" shape="2275.30,3470.91 2279.34,3476.17 2282.25,3478.79 2284.03,3478.76 2284.68,3476.10"/>
    </edge>
    <edge id=":antrim_91" function="internal">
        <lane id=":antrim_91_0" index="0" speed="6.67" length="15.91" shape="2275.30,3470.91 2279.50,3476.33 2282.60,3479.00 2284.61,3478.92 2285.52,3476.11"/>
    </edge>
    <edge id=":antrim_92" function="internal">
        <lane id=":antrim_92_0" index="0" speed="6.85" length="17.88" shape="2275.30,3470.91 2279.12,3475.44 2281.74,3476.40 2283.16,3473.78 2283.38,3467.59"/>
    </edge>
    <edge id=":antrim_93" function="internal">
        <lane id=":antrim_93_0" index="0" speed="10.00" length="23.16" shape="2275.30,3470.91 2280.60,3477.63 2285.35,3481.84 2289.54,3483.55 2293.19,3482.75"/>
    </edge>
    <edge id=":antrim_94" function="internal">
        <lane id=":antrim_94_0" index="0" speed="7.23" length="19.88" shape="2275.30,3470.91 2277.81,3476.42 2278.14,3481.72 2276.14,3485.22 2271.65,3485.29"/>
    </edge>
    <edge id=":antrim_95" function="internal">
        <lane id=":antrim_95_0" index="0" speed="5.24" length="10.85" shape="2275.30,3470.91 2275.47,3473.36 2273.94,3476.15 2271.62,3478.10 2269.43,3478.06"/>
    </edge>
    <edge id=":antrim_96" function="internal">
        <lane id=":antrim_96_0" index="0" speed="10.00" length="163.69" shape="2275.30,3470.91 2240.09,3420.90 2228.04,3404.60 2239.15,3422.04 2273.42,3473.20"/>
    </edge>
    <edge id=":antrim_97" function="internal">
        <lane id=":antrim_97_0" index="0" speed="7.88" length="29.57" shape="2275.30,3470.91 2268.94,3462.03 2266.61,3459.33 2268.31,3462.80 2274.05,3472.44"/>
    </edge>
    <edge id=":antrim_98" function="internal">
        <lane id=":antrim_98_0" index="0" speed="3.70" length="4.85" shape="2275.30,3470.91 2275.73,3472.35 2275.53,3473.25 2274.68,3473.63 2273.19,3473.48"/>
    </edge>
    <edge id=":antrim_99" function="internal">
        <lane id=":antrim_99_0" index="0" speed="2.98" length="2.10" shape="2271.46,3475.59 2270.85,3475.16 2270.59,3475.09 2270.66,3475.39 2271.08,3476.05"/>
    </edge>
    <edge id=":antrim_100" function="internal">
        <lane id=":antrim_100_0" index="0" speed="5.14" length="10.29" shape="2271.46,3475.59 2274.42,3477.66 2275.73,3477.95 2275.40,3476.46 2273.42,3473.20"/>
    </edge>
    <edge id=":antrim_101" function="internal">
        <lane id=":antrim_101_0" index="0" speed="2.97" length="2.01" shape="2271.46,3475.59 2272.03,3475.98 2272.29,3476.02 2272.25,3475.71 2271.90,3475.06"/>
    </edge>
    <edge id=":antrim_102" function="internal">
        <lane id=":antrim_102_0" index="0" speed="7.21" length="19.10" shape="2271.46,3475.59 2276.44,3478.64 2279.43,3478.47 2280.44,3475.06 2279.48,3468.42"/>
    </edge>
    <edge id=":antrim_103" function="internal">
        <lane id=":antrim_103_0" index="0" speed="7.73" length="20.94" shape="2271.46,3475.59 2276.83,3478.79 2280.40,3478.57 2282.17,3474.92 2282.13,3467.86"/>
    </edge>
    <edge id=":antrim_104" function="internal">
        <lane id=":antrim_104_0" index="0" speed="7.36" length="17.66" shape="2271.46,3475.59 2277.16,3479.44 2281.27,3480.81 2283.77,3479.69 2284.68,3476.10"/>
    </edge>
    <edge id=":antrim_105" function="internal">
        <lane id=":antrim_105_0" index="0" speed="7.61" length="18.33" shape="2271.46,3475.59 2277.29,3479.50 2281.58,3480.89 2284.32,3479.76 2285.52,3476.11"/>
    </edge>
    <edge id=":antrim_106" function="internal">
        <lane id=":antrim_106_0" index="0" speed="7.99" length="21.83" shape="2271.46,3475.59 2277.00,3478.84 2280.83,3478.59 2282.95,3474.84 2283.38,3467.59"/>
    </edge>
    <edge id=":antrim_107" function="internal">
        <lane id=":antrim_107_0" index="0" speed="10.00" length="24.06" shape="2271.46,3475.59 2278.31,3480.34 2284.22,3483.11 2289.18,3483.92 2293.19,3482.75"/>
    </edge>
    <edge id=":antrim_108" function="internal">
        <lane id=":antrim_108_0" index="0" speed="5.33" length="11.23" shape="2271.46,3475.59 2272.99,3478.10 2273.65,3481.61 2273.26,3484.53 2271.65,3485.29"/>
    </edge>
    <edge id=":antrim_109" function="internal">
        <lane id=":antrim_109_0" index="0" speed="3.65" length="4.67" shape="2271.46,3475.59 2271.88,3476.97 2271.68,3477.84 2270.86,3478.20 2269.43,3478.06"/>
    </edge>
    <edge id=":athlone_0" function="internal">
        <lane id=":athlone_0_0" index="0" speed="10.00" length="53.17" shape="1287.21,2010.16 1276.01,1995.48 1269.80,1992.11 1268.59,2000.05 1272.39,2019.29"/>
    </edge>
    <edge id=":athlone_1" function="internal">
        <lane id=":athlone_1_0" index="0" speed="10.00" length="50.70" shape="1287.21,2010.16 1275.31,1994.44 1267.90,1989.22 1264.98,1994.52 1266.54,2010.32"/>
    </edge>
    <edge id=":athlone_2" function="internal">
        <lane id=":athlone_2_0" index="0" speed="10.00" length="58.48" shape="1287.21,2010.16 1272.99,1989.73 1262.09,1975.51 1254.49,1967.51 1250.21,1965.73"/>
    </edge>
    <edge id=":athlone_3" function="internal">
        <lane id=":athlone_3_0" index="0" speed="10.00" length="90.86" shape="1287.21,2010.16 1279.92,1996.37 1266.51,1969.69 1253.43,1942.87 1247.09,1928.67"/>
    </edge>
    <edge id=":athlone_4" function="internal">
        <lane id=":athlone_4_0" index="0" speed="10.00" length="80.87" shape="1287.21,2010.16 1272.88,1986.00 1264.94,1965.53 1263.40,1948.74 1268.26,1935.66"/>
    </edge>
    <edge id=":athlone_5" function="internal">
        <lane id=":athlone_5_0" index="0" speed="10.00" length="69.42" shape="1287.21,2010.16 1275.53,1990.76 1269.29,1973.63 1271.20,1960.29 1283.98,1952.30"/>
    </edge>
    <edge id=":athlone_6" function="internal">
        <lane id=":athlone_6_0" index="0" speed="9.45" length="38.55" shape="1287.21,2010.16 1281.96,1998.90 1280.05,1987.64 1282.27,1980.51 1289.41,1981.67"/>
    </edge>
    <edge id=":athlone_7" function="internal">
        <lane id=":athlone_7_0" index="0" speed="7.03" length="22.49" shape="1287.21,2010.16 1284.13,2003.35 1282.86,1996.36 1283.71,1992.11 1287.00,1993.51"/>
    </edge>
    <edge id=":athlone_8" function="internal">
        <lane id=":athlone_8_0" index="0" speed="5.21" length="11.70" shape="1287.21,2010.16 1285.98,1998.53"/>
    </edge>
    <edge id=":athlone_9" function="internal">
        <lane id=":athlone_9_0" index="0" speed="10.00" length="81.41" shape="1287.21,2010.16 1304.38,2035.42 1310.36,2043.68 1305.17,2034.93 1288.80,2009.19"/>
    </edge>
    <edge id=":athlone_10" function="internal">
        <lane id=":athlone_10_0" index="0" speed="3.65" length="4.68" shape="1287.21,2010.16 1287.26,2008.72 1287.73,2007.96 1288.63,2007.88 1289.94,2008.48"/>
    </edge>
    <edge id=":athlone_11" function="internal">
        <lane id=":athlone_11_0" index="0" speed="7.94" length="29.28" shape="1286.20,1997.43 1280.65,1991.60 1279.42,1991.50 1282.51,1997.13 1289.94,2008.48"/>
    </edge>
    <edge id=":athlone_12" function="internal">
        <lane id=":athlone_12_0" index="0" speed="4.95" length="10.21" shape="1286.20,1997.43 1283.74,1994.75 1282.89,1994.03 1283.63,1995.29 1285.98,1998.53"/>
    </edge>
    <edge id=":athlone_13" function="internal">
        <lane id=":athlone_13_0" index="0" speed="8.42" length="32.92" shape="1286.20,1997.43 1279.69,1990.65 1277.96,1990.35 1280.99,1996.53 1288.80,2009.19"/>
    </edge>
    <edge id=":athlone_14" function="internal">
        <lane id=":athlone_14_0" index="0" speed="10.00" length="52.95" shape="1286.20,1997.43 1275.20,1987.37 1269.23,1987.66 1268.29,1998.30 1272.39,2019.29"/>
    </edge>
    <edge id=":athlone_15" function="internal">
        <lane id=":athlone_15_0" index="0" speed="10.00" length="48.92" shape="1286.20,1997.43 1274.62,1986.57 1267.48,1985.10 1264.79,1993.01 1266.54,2010.32"/>
    </edge>
    <edge id=":athlone_16" function="internal">
        <lane id=":athlone_16_0" index="0" speed="10.00" length="48.65" shape="1286.20,1997.43 1272.48,1982.53 1261.91,1972.28 1254.49,1966.68 1250.21,1965.73"/>
    </edge>
    <edge id=":athlone_17" function="internal">
        <lane id=":athlone_17_0" index="0" speed="10.00" length="79.15" shape="1286.20,1997.43 1278.84,1985.79 1265.81,1963.47 1253.20,1940.94 1247.09,1928.67"/>
    </edge>
    <edge id=":athlone_18" function="internal">
        <lane id=":athlone_18_0" index="0" speed="10.00" length="69.26" shape="1286.20,1997.43 1272.17,1979.03 1264.50,1962.60 1263.20,1948.14 1268.26,1935.66"/>
    </edge>
    <edge id=":athlone_19" function="internal">
        <lane id=":athlone_19_0" index="0" speed="10.00" length="57.27" shape="1286.20,1997.43 1275.40,1983.32 1269.71,1970.12 1271.71,1959.30 1283.98,1952.30"/>
    </edge>
    <edge id=":athlone_20" function="internal">
        <lane id=":athlone_20_0" index="0" speed="7.12" length="22.12" shape="1286.20,1997.43 1283.16,1991.44 1282.80,1985.16 1284.95,1981.08 1289.41,1981.67"/>
    </edge>
    <edge id=":athlone_21" function="internal">
        <lane id=":athlone_21_0" index="0" speed="3.94" length="5.84" shape="1286.20,1997.43 1284.93,1996.15 1284.64,1995.07 1285.33,1994.19 1287.00,1993.51"/>
    </edge>
    <edge id=":athlone_22" function="internal">
        <lane id=":athlone_22_0" index="0" speed="8.32" length="31.02" shape="1288.71,1985.06 1279.96,1979.74 1276.75,1979.37 1279.10,1983.96 1287.00,1993.51"/>
    </edge>
    <edge id=":athlone_23" function="internal">