<?xml version="1.0" encoding="UTF-8"?>

<!-- generated on 2024-09-30 21:44:42 by Eclipse SUMO netconvert Version 1.18.0
<configuration xmlns:xsi="http://www.w3.org/2001/XMLSchema-instance" xsi:noNamespaceSchemaLocation="http://sumo.dlr.de/xsd/netconvertConfiguration.xsd">

    <input>
        <node-files value="nod.xml"/>
        <edge-files value="edge_xmls/04501.xml"/>
    </input>

    <output>
        <output-file value="networks/04501.net.xml"/>
    </output>

</configuration>
-->

<net version="1.16" junctionCornerDetail="5" limitTurnSpeed="5.50" xmlns:xsi="http://www.w3.org/2001/XMLSchema-instance" xsi:noNamespaceSchemaLocation="http://sumo.dlr.de/xsd/net_file.xsd">

    <location netOffset="-682.00,4368.00" convBoundary="0.00,0.00,2498.00,3881.00" origBoundary="682.00,-4368.00,3180.00,-487.00" projParameter="!"/>

    <edge id=":antrim_0" function="internal">
        <lane id=":antrim_0_0" index="0" speed="10.00" length="51.52" shape="2292.14,3437.24 2287.25,3450.29 2277.41,3456.86 2265.61,3456.13 2254.86,3447.28"/>
    </edge>
    <edge id=":antrim_1" function="internal">
        <lane id=":antrim_1_0" index="0" speed="7.12" length="22.24" shape="2292.14,3437.24 2289.68,3443.18 2284.94,3446.93 2280.08,3447.37 2277.29,3443.35"/>
    </edge>
    <edge id=":antrim_2" function="internal">
        <lane id=":antrim_2_0" index="0" speed="5.50" length="13.05" shape="2292.14,3437.24 2290.61,3440.72 2287.67,3442.92 2284.81,3443.17 2283.48,3440.81"/>
    </edge>
    <edge id=":antrim_3" function="internal">
        <lane id=":antrim_3_0" index="0" speed="6.01" length="15.81" shape="2292.14,3437.24 2291.18,3442.03 2289.19,3444.31 2286.17,3444.09 2282.12,3441.36"/>
    </edge>
    <edge id=":antrim_4" function="internal">
        <lane id=":antrim_4_0" index="0" speed="10.00" length="46.92" shape="2288.68,3438.66 2284.79,3450.42 2275.78,3456.20 2264.78,3455.36 2254.86,3447.28"/>
    </edge>
    <edge id=":antrim_5" function="internal">
        <lane id=":antrim_5_0" index="0" speed="6.27" length="17.17" shape="2288.68,3438.66 2286.99,3443.23 2283.33,3446.11 2279.50,3446.44 2277.29,3443.35"/>
    </edge>
    <edge id=":antrim_6" function="internal">
        <lane id=":antrim_6_0" index="0" speed="4.88" length="9.93" shape="2288.68,3438.66 2287.65,3441.30 2285.44,3442.97 2283.22,3443.16 2282.12,3441.36"/>
    </edge>
    <edge id=":antrim_7" function="internal">
        <lane id=":antrim_7_0" index="0" speed="4.51" length="8.22" shape="2288.68,3438.66 2288.19,3441.15 2287.15,3442.34 2285.58,3442.22 2283.48,3440.81"/>
    </edge>
    <edge id=":antrim_8" function="internal">
        <lane id=":antrim_8_0" index="0" speed="6.26" length="17.54" shape="2280.34,3442.10 2281.44,3448.41 2282.10,3450.39 2282.33,3448.04 2282.12,3441.36"/>
    </edge>
    <edge id=":antrim_9" function="internal">
        <lane id=":antrim_9_0" index="0" speed="7.28" length="24.28" shape="2280.34,3442.10 2281.89,3450.74 2282.93,3453.40 2283.46,3450.09 2283.48,3440.81"/>
    </edge>
    <edge id=":antrim_10" function="internal">
        <lane id=":antrim_10_0" index="0" speed="9.22" length="35.53" shape="2280.34,3442.10 2278.46,3450.60 2271.53,3454.48 2262.64,3453.47 2254.86,3447.28"/>
    </edge>
    <edge id=":antrim_11" function="internal">
        <lane id=":antrim_11_0" index="0" speed="3.69" length="4.81" shape="2280.34,3442.10 2280.05,3443.55 2279.44,3444.25 2278.52,3444.18 2277.29,3443.35"/>
    </edge>
    <edge id=":antrim_12" function="internal">
        <lane id=":antrim_12_0" index="0" speed="6.75" length="19.77" shape="2273.05,3445.10 2276.03,3451.55 2277.73,3453.41 2278.15,3450.68 2277.29,3443.35"/>
    </edge>
    <edge id=":antrim_13" function="internal">
        <lane id=":antrim_13_0" index="0" speed="8.32" length="29.90" shape="2273.05,3445.10 2277.54,3454.36 2280.55,3456.82 2282.08,3452.49 2282.12,3441.36"/>
    </edge>
    <edge id=":antrim_14" function="internal">
        <lane id=":antrim_14_0" index="0" speed="8.63" length="31.95" shape="2273.05,3445.10 2277.83,3454.83 2281.17,3457.36 2283.05,3452.68 2283.48,3440.81"/>
    </edge>
    <edge id=":antrim_15" function="internal">
        <lane id=":antrim_15_0" index="0" speed="6.93" length="21.11" shape="2270.09,3446.32 2269.76,3450.75 2265.51,3452.34 2259.74,3451.16 2254.86,3447.28"/>
    </edge>
    <edge id=":antrim_16" function="internal">
        <lane id=":antrim_16_0" index="0" speed="8.64" length="31.77" shape="2266.77,3448.17 2273.10,3457.19 2276.97,3459.40 2278.36,3454.78 2277.29,3443.35"/>
    </edge>
    <edge id=":antrim_17" function="internal">
        <lane id=":antrim_17_0" index="0" speed="9.56" length="37.62" shape="2266.77,3448.17 2274.11,3458.23 2279.12,3460.45 2281.79,3454.82 2282.12,3441.36"/>
    </edge>
    <edge id=":antrim_18" function="internal">
        <lane id=":antrim_18_0" index="0" speed="10.00" length="45.71" shape="2264.08,3449.90 2272.87,3461.78 2279.03,3464.23 2282.57,3457.24 2283.48,3440.81"/>
    </edge>
    <edge id=":antrim_19" function="internal">
        <lane id=":antrim_19_0" index="0" speed="5.63" length="13.99" shape="2264.08,3449.90 2260.79,3452.70 2258.16,3453.20 2256.18,3451.39 2254.86,3447.28"/>
    </edge>
    <edge id=":antrim_20" function="internal">
        <lane id=":antrim_20_0" index="0" speed="3.01" length="2.40" shape="2254.97,3447.20 2254.41,3446.50 2254.20,3446.28 2254.35,3446.54 2254.86,3447.28"/>
    </edge>
    <edge id=":antrim_21" function="internal">
        <lane id=":antrim_21_0" index="0" speed="10.00" length="48.45" shape="2254.97,3447.20 2267.06,3460.48 2274.81,3464.26 2278.22,3458.55 2277.29,3443.35"/>
    </edge>
    <edge id=":antrim_22" function="internal">
        <lane id=":antrim_22_0" index="0" speed="10.00" length="52.37" shape="2254.97,3447.20 2267.62,3460.67 2276.36,3464.19 2281.19,3457.75 2282.12,3441.36"/>
    </edge>
    <edge id=":antrim_23" function="internal">
        <lane id=":antrim_23_0" index="0" speed="10.00" length="53.46" shape="2254.97,3447.20 2267.76,3460.71 2276.77,3464.14 2282.01,3457.51 2283.48,3440.81"/>
    </edge>
    <edge id=":athlone_0" function="internal">
        <lane id=":athlone_0_0" index="0" speed="10.00" length="16.00" shape="1253.76,1970.85 1252.14,1966.54 1249.94,1963.17 1247.16,1960.74 1243.80,1959.24"/>
    </edge>
    <edge id=":athlone_1" function="internal">
        <lane id=":athlone_1_0" index="0" speed="6.76" length="18.22" shape="1256.93,1970.28 1255.74,1964.29 1256.52,1961.84 1259.26,1962.93 1263.96,1967.56"/>
    </edge>
    <edge id=":athlone_2" function="internal">
        <lane id=":athlone_2_0" index="0" speed="7.56" length="26.75" shape="1256.93,1970.28 1259.76,1979.89 1261.10,1983.03 1260.93,1979.68 1259.26,1969.85"/>
    </edge>
    <edge id=":athlone_3" function="internal">
        <lane id=":athlone_3_0" index="0" speed="10.00" length="22.95" shape="1268.28,1946.61 1264.17,1953.28 1262.08,1958.99 1262.01,1963.75 1263.96,1967.56"/>
    </edge>
    <edge id=":athlone_4" function="internal">
        <lane id=":athlone_4_0" index="0" speed="10.00" length="25.48" shape="1268.28,1946.61 1263.75,1953.60 1260.73,1959.80 1259.24,1965.22 1259.26,1969.85"/>
    </edge>
    <edge id=":athlone_5" function="internal">
        <lane id=":athlone_5_0" index="0" speed="10.00" length="29.39" shape="1268.28,1946.61 1262.39,1953.49 1256.35,1957.88 1250.15,1959.80 1243.80,1959.24"/>
    </edge>
    <edge id=":athlone_6" function="internal">
        <lane id=":athlone_6_0" index="0" speed="10.00" length="24.09" shape="1264.76,1944.62 1262.12,1952.08 1261.11,1958.39 1261.73,1963.55 1263.96,1967.56"/>
    </edge>
    <edge id=":athlone_7" function="internal">
        <lane id=":athlone_7_0" index="0" speed="10.00" length="25.96" shape="1264.76,1944.62 1262.94,1949.81 1260.93,1957.12 1259.46,1964.48 1259.26,1969.85"/>
    </edge>
    <edge id=":athlone_8" function="internal">
        <lane id=":athlone_8_0" index="0" speed="10.00" length="28.15" shape="1264.76,1944.62 1260.51,1952.40 1255.60,1957.43 1250.03,1959.71 1243.80,1959.24"/>
    </edge>
    <edge id=":athlone_9" function="internal">
        <lane id=":athlone_9_0" index="0" speed="10.00" length="38.43" shape="1251.00,1931.47 1253.02,1938.64 1256.65,1949.94 1260.69,1961.03 1263.96,1967.56"/>
    </edge>
    <edge id=":athlone_10" function="internal">
        <lane id=":athlone_10_0" index="0" speed="10.00" length="39.26" shape="1251.00,1931.47 1259.26,1969.85"/>
    </edge>
    <edge id=":athlone_11" function="internal">
        <lane id=":athlone_11_0" index="0" speed="10.00" length="34.51" shape="1251.00,1931.47 1253.03,1942.84 1253.20,1952.44 1250.46,1958.50 1243.80,1959.24"/>
    </edge>
    <edge id=":athlone_12" function="internal">
        <lane id=":athlone_12_0" index="0" speed="10.00" length="38.60" shape="1247.07,1932.88 1251.16,1941.53 1255.97,1952.16 1260.56,1961.82 1263.96,1967.56"/>
    </edge>
    <edge id=":athlone_13" function="internal">
        <lane id=":athlone_13_0" index="0" speed="10.00" length="38.61" shape="1244.22,1934.33 1248.36,1942.95 1253.10,1953.59 1257.17,1963.48 1259.26,1969.85"/>
    </edge>
    <edge id=":athlone_14" function="internal">
        <lane id=":athlone_14_0" index="0" speed="9.49" length="32.01" shape="1244.22,1934.33 1248.60,1943.93 1251.14,1952.75 1250.12,1958.59 1243.80,1959.24"/>
    </edge>
    <edge id=":athlone_15" function="internal">
        <lane id=":athlone_15_0" index="0" speed="10.00" length="23.81" shape="1245.53,1953.08 1252.01,1955.96 1257.11,1959.93 1261.04,1964.10 1263.96,1967.56"/>
    </edge>
    <edge id=":athlone_16" function="internal">
        <lane id=":athlone_16_0" index="0" speed="10.00" length="21.14" shape="1244.67,1956.16 1250.35,1958.36 1254.68,1961.37 1257.65,1965.20 1259.26,1969.85"/>
    </edge>
    <edge id=":athlone_17" function="internal">
        <lane id=":athlone_17_0" index="0" speed="3.65" length="4.67" shape="1244.67,1956.16 1245.61,1957.26 1245.78,1958.13 1245.18,1958.80 1243.80,1959.24"/>
    </edge>
    <edge id=":athlone_18" function="internal">
        <lane id=":athlone_18_0" index="0" speed="5.46" length="9.88" shape="1244.38,1965.10 1247.06,1963.36 1247.85,1961.80 1246.77,1960.43 1243.80,1959.24"/>
    </edge>
    <edge id=":athlone_19" function="internal">
        <lane id=":athlone_19_0" index="0" speed="10.00" length="21.43" shape="1244.38,1965.10 1250.10,1962.97 1255.27,1962.67 1259.89,1964.20 1263.96,1967.56"/>
    </edge>
    <edge id=":athlone_20" function="internal">
        <lane id=":athlone_20_0" index="0" speed="8.39" length="19.15" shape="1244.38,1965.10 1250.11,1962.96 1254.50,1963.04 1257.55,1965.34 1259.26,1969.85"/>
    </edge>
    <edge id=":belfast_0" function="internal">
        <lane id=":belfast_0_0" index="0" speed="10.00" length="41.04" shape="2498.66,3329.10 2498.27,3343.41 2496.12,3354.35 2492.22,3361.93 2486.56,3366.15"/>
    </edge>
    <edge id=":belfast_1" function="internal">
        <lane id=":belfast_1_0" index="0" speed="10.00" length="38.41" shape="2498.66,3329.10 2498.22,3343.32 2495.91,3353.48 2491.74,3359.58 2485.69,3361.61"/>
    </edge>
    <edge id=":belfast_2" function="internal">
        <lane id=":belfast_2_0" index="0" speed="10.00" length="42.25" shape="2498.66,3329.10 2497.44,3341.50 2492.92,3350.07 2485.06,3353.80 2473.85,3351.69"/>
    </edge>
    <edge id=":belfast_3" function="internal">
        <lane id=":belfast_3_0" index="0" speed="10.00" length="49.09" shape="2498.66,3329.10 2495.77,3341.33 2487.42,3346.71 2475.55,3346.05 2462.07,3340.16"/>
    </edge>
    <edge id=":belfast_4" function="internal">
        <lane id=":belfast_4_0" index="0" speed="10.00" length="42.73" shape="2498.66,3329.10 2495.75,3339.16 2487.82,3342.78 2477.26,3340.74 2466.48,3333.85"/>
    </edge>
    <edge id=":belfast_5" function="internal">
        <lane id=":belfast_5_0" index="0" speed="10.00" length="39.54" shape="2498.66,3329.10 2495.82,3338.13 2488.22,3340.94 2478.41,3338.38 2468.92,3331.30"/>
    </edge>
    <edge id=":belfast_6" function="internal">
        <lane id=":belfast_6_0" index="0" speed="7.94" length="25.61" shape="2498.66,3329.10 2495.84,3332.52 2489.17,3332.33 2481.78,3329.55 2476.83,3325.17"/>
    </edge>
    <edge id=":belfast_7" function="internal">
        <lane id=":belfast_7_0" index="0" speed="6.81" length="19.30" shape="2498.66,3329.10 2497.04,3333.88 2493.03,3336.29 2488.43,3335.89 2485.05,3332.26"/>
    </edge>
    <edge id=":belfast_8" function="internal">
        <lane id=":belfast_8_0" index="0" speed="4.39" length="7.59" shape="2498.66,3329.10 2497.53,3331.16 2496.29,3331.92 2494.94,3331.39 2493.48,3329.56"/>
    </edge>
    <edge id=":belfast_9" function="internal">
        <lane id=":belfast_9_0" index="0" speed="6.45" length="17.84" shape="2489.47,3330.50 2491.84,3336.57 2493.30,3338.43 2493.85,3336.10 2493.48,3329.56"/>
    </edge>
    <edge id=":belfast_10" function="internal">
        <lane id=":belfast_10_0" index="0" speed="10.00" length="39.04" shape="2489.47,3330.50 2493.24,3344.14 2494.02,3354.63 2491.79,3361.96 2486.56,3366.15"/>
    </edge>
    <edge id=":belfast_11" function="internal">
        <lane id=":belfast_11_0" index="0" speed="10.00" length="32.89" shape="2489.47,3330.50 2490.98,3338.90 2490.99,3349.20 2489.30,3357.93 2485.69,3361.61"/>
    </edge>
    <edge id=":belfast_12" function="internal">
        <lane id=":belfast_12_0" index="0" speed="9.24" length="29.97" shape="2489.47,3330.50 2489.38,3337.78 2485.77,3345.47 2480.11,3350.97 2473.85,3351.69"/>
    </edge>
    <edge id=":belfast_13" function="internal">
        <lane id=":belfast_13_0" index="0" speed="9.31" length="32.71" shape="2489.47,3330.50 2487.49,3336.20 2479.72,3340.20 2469.97,3341.77 2462.07,3340.16"/>
    </edge>
    <edge id=":belfast_14" function="internal">
        <lane id=":belfast_14_0" index="0" speed="8.15" length="26.78" shape="2489.47,3330.50 2487.76,3334.83 2481.09,3336.86 2472.86,3336.54 2466.48,3333.85"/>
    </edge>
    <edge id=":belfast_15" function="internal">
        <lane id=":belfast_15_0" index="0" speed="7.58" length="23.74" shape="2489.47,3330.50 2487.86,3334.06 2481.79,3335.20 2474.42,3334.20 2468.92,3331.30"/>
    </edge>
    <edge id=":belfast_16" function="internal">
        <lane id=":belfast_16_0" index="0" speed="6.50" length="18.62" shape="2489.47,3330.50 2489.07,3333.64 2485.47,3333.03 2480.71,3329.82 2476.83,3325.17"/>
    </edge>
    <edge id=":belfast_17" function="internal">
        <lane id=":belfast_17_0" index="0" speed="3.92" length="5.64" shape="2489.47,3330.50 2489.08,3331.61 2487.68,3332.49 2486.06,3332.82 2485.05,3332.26"/>
    </edge>
    <edge id=":belfast_18" function="internal">
        <lane id=":belfast_18_0" index="0" speed="6.92" length="20.49" shape="2488.02,3331.07 2491.11,3337.78 2493.05,3339.76 2493.84,3337.02 2493.48,3329.56"/>
    </edge>
    <edge id=":belfast_19" function="internal">
        <lane id=":belfast_19_0" index="0" speed="10.00" length="36.09" shape="2488.02,3331.07 2489.92,3339.75 2490.47,3350.95 2489.42,3360.98 2486.56,3366.15"/>
    </edge>
    <edge id=":belfast_20" function="internal">
        <lane id=":belfast_20_0" index="0" speed="10.00" length="32.31" shape="2488.02,3331.07 2489.96,3339.32 2490.50,3349.43 2489.22,3358.00 2485.69,3361.61"/>
    </edge>
    <edge id=":belfast_21" function="internal">
        <lane id=":belfast_21_0" index="0" speed="8.93" length="28.57" shape="2488.02,3331.07 2488.21,3338.01 2484.99,3345.48 2479.75,3350.91 2473.85,3351.69"/>
    </edge>
    <edge id=":belfast_22" function="internal">
        <lane id=":belfast_22_0" index="0" speed="9.03" length="31.35" shape="2488.02,3331.07 2486.44,3336.62 2479.15,3340.43 2469.81,3341.84 2462.07,3340.16"/>
    </edge>
    <edge id=":belfast_23" function="internal">
        <lane id=":belfast_23_0" index="0" speed="7.82" length="25.05" shape="2488.02,3331.07 2486.56,3335.02 2480.29,3336.79 2472.50,3336.40 2466.48,3333.85"/>
    </edge>
    <edge id=":belfast_24" function="internal">
        <lane id=":belfast_24_0" index="0" speed="7.26" length="22.04" shape="2488.02,3331.07 2486.65,3334.25 2481.00,3335.14 2474.08,3334.05 2468.92,3331.30"/>
    </edge>
    <edge id=":belfast_25" function="internal">
        <lane id=":belfast_25_0" index="0" speed="5.74" length="14.29" shape="2488.02,3331.07 2487.23,3332.32 2483.78,3330.97 2479.66,3328.20 2476.83,3325.17"/>
    </edge>
    <edge id=":belfast_26" function="internal">
        <lane id=":belfast_26_0" index="0" speed="3.65" length="4.67" shape="2488.02,3331.07 2487.72,3332.48 2487.13,3333.15 2486.23,3333.08 2485.05,3332.26"/>
    </edge>
    <edge id=":belfast_27" function="internal">
        <lane id=":belfast_27_0" index="0" speed="6.93" length="20.54" shape="2487.98,3331.09 2491.09,3337.81 2493.05,3339.79 2493.84,3337.04 2493.48,3329.56"/>
    </edge>
    <edge id=":belfast_28" function="internal">
        <lane id=":belfast_28_0" index="0" speed="10.00" length="36.07" shape="2487.98,3331.09 2489.89,3339.76 2490.45,3350.96 2489.42,3360.99 2486.56,3366.15"/>
    </edge>
    <edge id=":belfast_29" function="internal">
        <lane id=":belfast_29_0" index="0" speed="10.00" length="32.30" shape="2487.98,3331.09 2489.94,3339.33 2490.49,3349.44 2489.22,3358.00 2485.69,3361.61"/>
    </edge>
    <edge id=":belfast_30" function="internal">
        <lane id=":belfast_30_0" index="0" speed="8.92" length="28.54" shape="2487.98,3331.09 2488.18,3338.01 2484.97,3345.48 2479.74,3350.90 2473.85,3351.69"/>
    </edge>
    <edge id=":belfast_31" function="internal">
        <lane id=":belfast_31_0" index="0" speed="9.02" length="31.32" shape="2487.98,3331.09 2486.42,3336.63 2479.14,3340.44 2469.80,3341.84 2462.07,3340.16"/>
    </edge>
    <edge id=":belfast_32" function="internal">
        <lane id=":belfast_32_0" index="0" speed="7.82" length="25.01" shape="2487.98,3331.09 2486.53,3335.02 2480.27,3336.79 2472.49,3336.40 2466.48,3333.85"/>
    </edge>
    <edge id=":belfast_33" function="internal">
        <lane id=":belfast_33_0" index="0" speed="7.25" length="22.00" shape="2487.98,3331.09 2486.62,3334.26 2480.98,3335.14 2474.07,3334.05 2468.92,3331.30"/>
    </edge>
    <edge id=":belfast_34" function="internal">
        <lane id=":belfast_34_0" index="0" speed="3.23" length="3.16" shape="2487.98,3331.09 2485.05,3332.26"/>
    </edge>
    <edge id=":belfast_35" function="internal">
        <lane id=":belfast_35_0" index="0" speed="6.42" length="18.44" shape="2487.98,3331.09 2482.97,3333.79 2479.44,3333.71 2477.40,3330.83 2476.83,3325.17"/>
    </edge>
    <edge id=":belfast_36" function="internal">
        <lane id=":belfast_36_0" index="0" speed="7.72" length="26.71" shape="2472.32,3328.66 2479.06,3335.72 2482.06,3337.49 2481.31,3333.97 2476.83,3325.17"/>
    </edge>
    <edge id=":belfast_37" function="internal">
        <lane id=":belfast_37_0" index="0" speed="8.11" length="28.32" shape="2472.32,3328.66 2480.88,3337.64 2485.86,3341.23 2487.25,3339.44 2485.05,3332.26"/>
    </edge>
    <edge id=":belfast_38" function="internal">
        <lane id=":belfast_38_0" index="0" speed="9.66" length="36.40" shape="2472.32,3328.66 2482.50,3338.70 2489.42,3342.19 2493.08,3339.14 2493.48,3329.56"/>
    </edge>
    <edge id=":belfast_39" function="internal">
        <lane id=":belfast_39_0" index="0" speed="10.00" length="40.97" shape="2472.32,3328.66 2477.70,3337.07 2483.42,3349.21 2487.15,3360.45 2486.56,3366.15"/>
    </edge>
    <edge id=":belfast_40" function="internal">
        <lane id=":belfast_40_0" index="0" speed="10.00" length="36.80" shape="2472.32,3328.66 2477.73,3336.62 2483.45,3347.63 2486.94,3357.40 2485.69,3361.61"/>
    </edge>
    <edge id=":belfast_41" function="internal">
        <lane id=":belfast_41_0" index="0" speed="8.01" length="26.36" shape="2472.32,3328.66 2475.71,3335.10 2477.66,3343.44 2477.32,3350.15 2473.85,3351.69"/>
    </edge>
    <edge id=":belfast_42" function="internal">
        <lane id=":belfast_42_0" index="0" speed="6.56" length="18.08" shape="2472.32,3328.66 2472.77,3332.45 2470.12,3336.85 2466.01,3340.03 2462.07,3340.16"/>
    </edge>
    <edge id=":belfast_43" function="internal">
        <lane id=":belfast_43_0" index="0" speed="3.56" length="4.30" shape="2472.32,3328.66 2468.92,3331.30"/>
    </edge>
    <edge id=":belfast_44" function="internal">
        <lane id=":belfast_44_0" index="0" speed="5.20" length="11.40" shape="2472.32,3328.66 2472.81,3332.15 2472.00,3334.18 2469.89,3334.74 2466.48,3333.85"/>
    </edge>
    <edge id=":belfast_45" function="internal">
        <lane id=":belfast_45_0" index="0" speed="7.60" length="25.89" shape="2472.66,3328.40 2479.11,3335.33 2481.96,3337.10 2481.20,3333.71 2476.83,3325.17"/>
    </edge>
    <edge id=":belfast_46" function="internal">
        <lane id=":belfast_46_0" index="0" speed="8.04" length="27.91" shape="2472.66,3328.40 2481.03,3337.39 2485.89,3341.03 2487.23,3339.32 2485.05,3332.26"/>
    </edge>
    <edge id=":belfast_47" function="internal">
        <lane id=":belfast_47_0" index="0" speed="9.61" length="36.15" shape="2472.66,3328.40 2482.69,3338.52 2489.50,3342.08 2493.10,3339.10 2493.48,3329.56"/>
    </edge>
    <edge id=":belfast_48" function="internal">
        <lane id=":belfast_48_0" index="0" speed="10.00" length="41.09" shape="2472.66,3328.40 2477.95,3336.87 2483.55,3349.11 2487.18,3360.43 2486.56,3366.15"/>
    </edge>
    <edge id=":belfast_49" function="internal">
        <lane id=":belfast_49_0" index="0" speed="10.00" length="36.90" shape="2472.66,3328.40 2477.98,3336.42 2483.58,3347.52 2486.97,3357.37 2485.69,3361.61"/>
    </edge>
    <edge id=":belfast_50" function="internal">
        <lane id=":belfast_50_0" index="0" speed="8.06" length="26.64" shape="2472.66,3328.40 2476.00,3334.94 2477.85,3343.36 2477.41,3350.13 2473.85,3351.69"/>
    </edge>
    <edge id=":belfast_51" function="internal">
        <lane id=":belfast_51_0" index="0" speed="6.65" length="18.57" shape="2472.66,3328.40 2473.10,3332.30 2470.35,3336.80 2466.12,3340.03 2462.07,3340.16"/>
    </edge>
    <edge id=":belfast_52" function="internal">
        <lane id=":belfast_52_0" index="0" speed="4.88" length="9.73" shape="2472.66,3328.40 2472.74,3330.39 2471.01,3332.59 2468.56,3334.07 2466.48,3333.85"/>
    </edge>
    <edge id=":belfast_53" function="internal">
        <lane id=":belfast_53_0" index="0" speed="3.68" length="4.73" shape="2472.66,3328.40 2468.92,3331.30"/>
    </edge>
    <edge id=":belfast_54" function="internal">
        <lane id=":belfast_54_0" index="0" speed="5.98" length="15.03" shape="2474.00,3327.36 2477.90,3331.20 2479.67,3332.11 2479.31,3330.10 2476.83,3325.17"/>
    </edge>
    <edge id=":belfast_55" function="internal">
        <lane id=":belfast_55_0" index="0" speed="7.02" length="20.51" shape="2474.00,3327.36 2480.67,3334.06 2484.74,3337.10 2486.20,3336.50 2485.05,3332.26"/>
    </edge>
    <edge id=":belfast_56" function="internal">
        <lane id=":belfast_56_0" index="0" speed="9.08" length="31.54" shape="2474.00,3327.36 2483.26,3336.09 2489.60,3339.36 2493.00,3337.19 2493.48,3329.56"/>
    </edge>
    <edge id=":belfast_57" function="internal">
        <lane id=":belfast_57_0" index="0" speed="10.00" length="41.98" shape="2474.00,3327.36 2479.33,3335.85 2484.70,3348.36 2487.86,3360.07 2486.56,3366.15"/>
    </edge>
    <edge id=":belfast_58" function="internal">
        <lane id=":belfast_58_0" index="0" speed="10.00" length="36.55" shape="2471.46,3329.33 2477.10,3337.11 2483.12,3347.90 2486.87,3357.48 2485.69,3361.61"/>
    </edge>
    <edge id=":belfast_59" function="internal">
        <lane id=":belfast_59_0" index="0" speed="7.87" length="25.67" shape="2471.46,3329.33 2474.97,3335.54 2477.17,3343.64 2477.11,3350.18 2473.85,3351.69"/>
    </edge>
    <edge id=":belfast_60" function="internal">
        <lane id=":belfast_60_0" index="0" speed="6.32" length="16.85" shape="2471.46,3329.33 2471.95,3332.84 2469.52,3336.98 2465.72,3340.00 2462.07,3340.16"/>
    </edge>
    <edge id=":belfast_61" function="internal">
        <lane id=":belfast_61_0" index="0" speed="4.48" length="7.96" shape="2471.46,3329.33 2471.56,3330.94 2470.17,3332.77 2468.18,3334.01 2466.48,3333.85"/>
    </edge>
    <edge id=":belfast_62" function="internal">
        <lane id=":belfast_62_0" index="0" speed="3.66" length="4.69" shape="2471.46,3329.33 2471.56,3330.78 2471.17,3331.58 2470.29,3331.76 2468.92,3331.30"/>
    </edge>
    <edge id=":belfast_63" function="internal">
        <lane id=":belfast_63_0" index="0" speed="7.65" length="26.29" shape="2463.40,3338.27 2471.93,3342.79 2475.29,3343.55 2473.47,3340.58 2466.48,3333.85"/>
    </edge>
    <edge id=":belfast_64" function="internal">
        <lane id=":belfast_64_0" index="0" speed="8.45" length="31.44" shape="2463.40,3338.27 2473.53,3343.46 2477.83,3344.03 2476.29,3339.97 2468.92,3331.30"/>
    </edge>
    <edge id=":belfast_65" function="internal">
        <lane id=":belfast_65_0" index="0" speed="9.88" length="39.61" shape="2463.40,3338.27 2475.64,3344.00 2481.96,3343.73 2482.35,3337.45 2476.83,3325.17"/>
    </edge>
    <edge id=":belfast_66" function="internal">
        <lane id=":belfast_66_0" index="0" speed="9.85" length="37.34" shape="2463.40,3338.27 2476.52,3344.66 2484.50,3345.78 2487.34,3341.65 2485.05,3332.26"/>
    </edge>
    <edge id=":belfast_67" function="internal">
        <lane id=":belfast_67_0" index="0" speed="10.00" length="43.57" shape="2463.40,3338.27 2477.55,3344.77 2487.27,3345.49 2492.59,3340.42 2493.48,3329.56"/>
    </edge>
    <edge id=":belfast_68" function="internal">
        <lane id=":belfast_68_0" index="0" speed="10.00" length="42.68" shape="2463.40,3338.27 2476.16,3346.17 2486.26,3354.14 2490.72,3361.14 2486.56,3366.15"/>
    </edge>
    <edge id=":belfast_69" function="internal">
        <lane id=":belfast_69_0" index="0" speed="9.15" length="34.00" shape="2463.40,3338.27 2471.19,3343.78 2480.27,3351.60 2486.48,3358.59 2485.69,3361.61"/>
    </edge>
    <edge id=":belfast_70" function="internal">
        <lane id=":belfast_70_0" index="0" speed="7.05" length="22.66" shape="2463.40,3338.27 2469.71,3342.86 2474.97,3348.10 2477.05,3351.78 2473.85,3351.69"/>
    </edge>
    <edge id=":belfast_71" function="internal">
        <lane id=":belfast_71_0" index="0" speed="3.30" length="3.37" shape="2463.40,3338.27 2463.78,3339.24 2463.68,3339.88 2463.12,3340.18 2462.07,3340.16"/>
    </edge>
    <edge id=":bray_0" function="internal">
        <lane id=":bray_0_0" index="0" speed="10.00" length="57.76" shape="2442.47,1634.71 2443.80,1645.05 2445.81,1663.39 2447.67,1681.75 2448.55,1692.14"/>
    </edge>
    <edge id=":bray_1" function="internal">
        <lane id=":bray_1_0" index="0" speed="10.00" length="57.40" shape="2442.47,1634.71 2443.31,1645.03 2444.20,1663.34 2444.83,1681.67 2444.89,1692.04"/>
    </edge>
    <edge id=":bray_2" function="internal">
        <lane id=":bray_2_0" index="0" speed="10.00" length="47.20" shape="2442.47,1634.71 2442.49,1643.47 2441.44,1658.30 2439.81,1673.06 2438.09,1681.61"/>
    </edge>
    <edge id=":bray_3" function="internal">
        <lane id=":bray_3_0" index="0" speed="10.00" length="47.12" shape="2442.47,1634.71 2442.44,1643.45 2441.28,1658.25 2439.52,1672.97 2437.71,1681.48"/>
    </edge>
    <edge id=":bray_4" function="internal">
        <lane id=":bray_4_0" index="0" speed="10.00" length="47.05" shape="2442.47,1634.71 2443.94,1647.52 2443.13,1659.31 2440.03,1670.08 2434.65,1679.82"/>
    </edge>
    <edge id=":bray_5" function="internal">
        <lane id=":bray_5_0" index="0" speed="10.00" length="46.71" shape="2442.47,1634.71 2443.88,1647.50 2442.89,1659.16 2439.48,1669.70 2433.66,1679.10"/>
    </edge>
    <edge id=":bray_6" function="internal">
        <lane id=":bray_6_0" index="0" speed="10.00" length="35.18" shape="2442.47,1634.71 2443.94,1645.65 2443.07,1654.28 2438.85,1659.66 2430.30,1660.82"/>
    </edge>
    <edge id=":bray_7" function="internal">
        <lane id=":bray_7_0" index="0" speed="9.80" length="31.60" shape="2442.47,1634.71 2443.62,1644.54 2442.65,1652.68 2438.81,1657.34 2431.37,1656.68"/>
    </edge>
    <edge id=":bray_8" function="internal">
        <lane id=":bray_8_0" index="0" speed="3.65" length="4.67" shape="2442.47,1634.71 2441.91,1636.04 2441.21,1636.58 2440.34,1636.35 2439.33,1635.32"/>
    </edge>
    <edge id=":bray_9" function="internal">
        <lane id=":bray_9_0" index="0" speed="6.16" length="15.86" shape="2435.27,1636.74 2438.15,1641.73 2439.78,1643.15 2440.18,1641.02 2439.33,1635.32"/>
    </edge>
    <edge id=":bray_10" function="internal">
        <lane id=":bray_10_0" index="0" speed="10.00" length="57.01" shape="2435.27,1636.74 2438.29,1646.56 2442.72,1664.23 2446.74,1682.00 2448.55,1692.14"/>
    </edge>
    <edge id=":bray_11" function="internal">
        <lane id=":bray_11_0" index="0" speed="10.00" length="56.19" shape="2435.27,1636.74 2437.80,1646.55 2441.10,1664.18 2443.89,1681.92 2444.89,1692.04"/>
    </edge>
    <edge id=":bray_12" function="internal">
        <lane id=":bray_12_0" index="0" speed="10.00" length="46.59" shape="2435.27,1636.74 2440.14,1648.63 2442.23,1660.07 2441.55,1671.06 2438.09,1681.61"/>
    </edge>
    <edge id=":bray_13" function="internal">
        <lane id=":bray_13_0" index="0" speed="10.00" length="46.52" shape="2435.27,1636.74 2440.12,1648.63 2442.14,1660.05 2441.34,1671.00 2437.71,1681.48"/>
    </edge>
    <edge id=":bray_14" function="internal">
        <lane id=":bray_14_0" index="0" speed="10.00" length="45.43" shape="2435.27,1636.74 2439.96,1648.58 2441.41,1659.70 2439.65,1670.12 2434.65,1679.82"/>
    </edge>
    <edge id=":bray_15" function="internal">
        <lane id=":bray_15_0" index="0" speed="10.00" length="44.99" shape="2435.27,1636.74 2439.90,1648.55 2441.18,1659.55 2439.10,1669.74 2433.66,1679.10"/>
    </edge>
    <edge id=":bray_16" function="internal">