<?xml version="1.0" encoding="UTF-8"?>

<!-- generated on 2024-09-30 21:45:20 by Eclipse SUMO netconvert Version 1.18.0
<configuration xmlns:xsi="http://www.w3.org/2001/XMLSchema-instance" xsi:noNamespaceSchemaLocation="http://sumo.dlr.de/xsd/netconvertConfiguration.xsd">

    <input>
        <node-files value="nod.xml"/>
        <edge-files value="edge_xmls/04544.xml"/>
    </input>

    <output>
        <output-file value="networks/04544.net.xml"/>
    </output>

</configuration>
-->

<net version="1.16" junctionCornerDetail="5" limitTurnSpeed="5.50" xmlns:xsi="http://www.w3.org/2001/XMLSchema-instance" xsi:noNamespaceSchemaLocation="http://sumo.dlr.de/xsd/net_file.xsd">

    <location netOffset="-682.00,4368.00" convBoundary="0.00,0.00,2498.00,3881.00" origBoundary="682.00,-4368.00,3180.00,-487.00" projParameter="!"/>

    <edge id=":antrim_0" function="internal">
        <lane id=":antrim_0_0" index="0" speed="8.62" length="18.73" shape="2287.85,3477.41 2287.30,3484.67 2286.00,3489.68 2283.96,3492.45 2281.18,3492.97"/>
    </edge>
    <edge id=":antrim_1" function="internal">
        <lane id=":antrim_1_0" index="0" speed="10.00" length="40.93" shape="2287.85,3477.41 2284.75,3484.93 2276.99,3486.40 2266.12,3483.48 2253.71,3477.81"/>
    </edge>
    <edge id=":antrim_2" function="internal">
        <lane id=":antrim_2_0" index="0" speed="9.72" length="33.61" shape="2287.85,3477.41 2285.20,3484.16 2278.90,3484.29 2270.73,3479.88 2262.45,3472.98"/>
    </edge>
    <edge id=":antrim_3" function="internal">
        <lane id=":antrim_3_0" index="0" speed="8.86" length="29.44" shape="2287.85,3477.41 2285.63,3482.59 2280.44,3481.12 2273.85,3475.48 2267.43,3468.17"/>
    </edge>
    <edge id=":antrim_4" function="internal">
        <lane id=":antrim_4_0" index="0" speed="8.62" length="28.60" shape="2287.85,3477.41 2285.73,3482.28 2280.79,3480.49 2274.61,3474.60 2268.74,3467.13"/>
    </edge>
    <edge id=":antrim_5" function="internal">
        <lane id=":antrim_5_0" index="0" speed="7.39" length="22.49" shape="2287.85,3477.41 2285.93,3478.89 2281.64,3475.16 2276.91,3469.02 2273.63,3463.26"/>
    </edge>
    <edge id=":antrim_6" function="internal">
        <lane id=":antrim_6_0" index="0" speed="7.95" length="26.56" shape="2287.85,3477.41 2286.16,3481.30 2282.37,3478.23 2277.86,3471.14 2274.01,3462.96"/>
    </edge>
    <edge id=":antrim_7" function="internal">
        <lane id=":antrim_7_0" index="0" speed="3.65" length="4.67" shape="2287.85,3477.41 2287.02,3478.59 2286.22,3478.98 2285.42,3478.56 2284.65,3477.34"/>
    </edge>
    <edge id=":antrim_8" function="internal">
        <lane id=":antrim_8_0" index="0" speed="5.78" length="14.02" shape="2271.64,3464.83 2274.60,3468.88 2275.98,3469.92 2275.78,3467.95 2274.01,3462.96"/>
    </edge>
    <edge id=":antrim_9" function="internal">
        <lane id=":antrim_9_0" index="0" speed="5.52" length="12.70" shape="2271.64,3464.83 2274.32,3468.53 2275.55,3469.50 2275.32,3467.74 2273.63,3463.26"/>
    </edge>
    <edge id=":antrim_10" function="internal">
        <lane id=":antrim_10_0" index="0" speed="7.40" length="20.75" shape="2271.64,3464.83 2277.28,3472.78 2281.33,3477.51 2283.78,3479.03 2284.65,3477.34"/>
    </edge>
    <edge id=":antrim_11" function="internal">
        <lane id=":antrim_11_0" index="0" speed="9.23" length="30.72" shape="2271.64,3464.83 2275.91,3472.47 2280.09,3482.01 2282.43,3490.00 2281.18,3492.97"/>
    </edge>
    <edge id=":antrim_12" function="internal">
        <lane id=":antrim_12_0" index="0" speed="7.53" length="22.58" shape="2271.64,3464.83 2271.37,3469.08 2266.79,3472.96 2260.46,3475.27 2254.89,3474.81"/>
    </edge>
    <edge id=":antrim_13" function="internal">
        <lane id=":antrim_13_0" index="0" speed="5.53" length="12.71" shape="2271.64,3464.83 2272.25,3468.01 2270.58,3470.64 2267.69,3471.83 2264.67,3470.68"/>
    </edge>
    <edge id=":antrim_14" function="internal">
        <lane id=":antrim_14_0" index="0" speed="4.39" length="7.58" shape="2271.64,3464.83 2271.95,3466.73 2270.86,3468.31 2269.10,3468.99 2267.43,3468.17"/>
    </edge>
    <edge id=":antrim_15" function="internal">
        <lane id=":antrim_15_0" index="0" speed="3.84" length="5.39" shape="2271.64,3464.83 2271.78,3466.49 2271.34,3467.43 2270.33,3467.64 2268.74,3467.13"/>
    </edge>
    <edge id=":antrim_16" function="internal">
        <lane id=":antrim_16_0" index="0" speed="6.24" length="16.45" shape="2270.38,3465.84 2274.12,3470.33 2275.91,3471.39 2275.75,3469.04 2273.63,3463.26"/>
    </edge>
    <edge id=":antrim_17" function="internal">
        <lane id=":antrim_17_0" index="0" speed="6.40" length="17.34" shape="2270.38,3465.84 2274.31,3470.53 2276.23,3471.61 2276.13,3469.09 2274.01,3462.96"/>
    </edge>
    <edge id=":antrim_18" function="internal">
        <lane id=":antrim_18_0" index="0" speed="7.58" length="21.29" shape="2270.38,3465.84 2276.56,3473.51 2281.01,3477.99 2283.70,3479.27 2284.65,3477.34"/>
    </edge>
    <edge id=":antrim_19" function="internal">
        <lane id=":antrim_19_0" index="0" speed="8.90" length="29.19" shape="2270.38,3465.84 2276.87,3474.72 2281.93,3482.71 2284.07,3488.26 2281.77,3489.83"/>
    </edge>
    <edge id=":antrim_20" function="internal">
        <lane id=":antrim_20_0" index="0" speed="7.71" length="24.39" shape="2270.38,3465.84 2271.74,3471.22 2268.21,3475.00 2261.89,3476.44 2254.89,3474.81"/>
    </edge>
    <edge id=":antrim_21" function="internal">
        <lane id=":antrim_21_0" index="0" speed="4.72" length="8.84" shape="2270.38,3465.84 2270.38,3467.67 2268.76,3469.65 2266.53,3470.93 2264.67,3470.68"/>
    </edge>
    <edge id=":antrim_22" function="internal">
        <lane id=":antrim_22_0" index="0" speed="10.00" length="51.85" shape="2270.38,3465.84 2258.52,3450.47 2254.29,3445.56 2257.70,3451.12 2268.74,3467.13"/>
    </edge>
    <edge id=":antrim_23" function="internal">
        <lane id=":antrim_23_0" index="0" speed="3.87" length="5.50" shape="2270.38,3465.84 2270.52,3467.53 2270.07,3468.48 2269.04,3468.69 2267.43,3468.17"/>
    </edge>
    <edge id=":antrim_24" function="internal">
        <lane id=":antrim_24_0" index="0" speed="4.05" length="6.09" shape="2269.19,3466.77 2267.69,3465.07 2267.12,3464.55 2267.47,3465.24 2268.74,3467.13"/>
    </edge>
    <edge id=":antrim_25" function="internal">
        <lane id=":antrim_25_0" index="0" speed="6.70" length="18.91" shape="2269.19,3466.77 2273.77,3471.60 2276.03,3472.63 2275.98,3469.85 2273.63,3463.26"/>
    </edge>
    <edge id=":antrim_26" function="internal">
        <lane id=":antrim_26_0" index="0" speed="6.83" length="19.59" shape="2269.19,3466.77 2273.91,3471.73 2276.29,3472.74 2276.32,3469.82 2274.01,3462.96"/>
    </edge>
    <edge id=":antrim_27" function="internal">
        <lane id=":antrim_27_0" index="0" speed="7.76" length="21.85" shape="2269.19,3466.77 2275.90,3474.18 2280.71,3478.41 2283.62,3479.46 2284.65,3477.34"/>
    </edge>
    <edge id=":antrim_28" function="internal">
        <lane id=":antrim_28_0" index="0" speed="8.78" length="29.09" shape="2269.19,3466.77 2276.13,3475.25 2281.65,3482.96 2284.08,3488.35 2281.77,3489.83"/>
    </edge>
    <edge id=":antrim_29" function="internal">
        <lane id=":antrim_29_0" index="0" speed="6.82" length="19.05" shape="2269.19,3466.77 2269.14,3470.14 2265.19,3473.29 2259.68,3475.20 2254.89,3474.81"/>
    </edge>
    <edge id=":antrim_30" function="internal">
        <lane id=":antrim_30_0" index="0" speed="10.00" length="66.32" shape="2269.19,3466.77 2252.97,3447.92 2247.27,3441.87 2252.09,3448.62 2267.43,3468.17"/>
    </edge>
    <edge id=":antrim_31" function="internal">
        <lane id=":antrim_31_0" index="0" speed="4.65" length="8.73" shape="2269.19,3466.77 2269.53,3469.45 2268.88,3470.99 2267.26,3471.40 2264.67,3470.68"/>
    </edge>
    <edge id=":antrim_32" function="internal">
        <lane id=":antrim_32_0" index="0" speed="7.03" length="22.63" shape="2254.65,3475.44 2246.72,3472.61 2243.93,3472.07 2246.26,3473.80 2253.71,3477.81"/>
    </edge>
    <edge id=":antrim_33" function="internal">
        <lane id=":antrim_33_0" index="0" speed="6.50" length="17.04" shape="2254.65,3475.44 2261.52,3477.70 2265.12,3478.04 2265.43,3476.47 2262.45,3472.98"/>
    </edge>
    <edge id=":antrim_34" function="internal">
        <lane id=":antrim_34_0" index="0" speed="8.48" length="28.71" shape="2254.65,3475.44 2265.38,3478.74 2271.09,3478.63 2271.77,3475.11 2267.43,3468.17"/>
    </edge>
    <edge id=":antrim_35" function="internal">
        <lane id=":antrim_35_0" index="0" speed="8.76" length="30.03" shape="2254.65,3475.44 2265.68,3478.76 2271.71,3478.48 2272.73,3474.60 2268.74,3467.13"/>
    </edge>
    <edge id=":antrim_36" function="internal">
        <lane id=":antrim_36_0" index="0" speed="9.86" length="34.81" shape="2254.65,3475.44 2266.51,3478.71 2273.62,3477.77 2276.00,3472.62 2273.63,3463.26"/>
    </edge>
    <edge id=":antrim_37" function="internal">
        <lane id=":antrim_37_0" index="0" speed="9.95" length="35.19" shape="2254.65,3475.44 2266.56,3478.70 2273.76,3477.71 2276.24,3472.46 2274.01,3462.96"/>
    </edge>
    <edge id=":antrim_38" function="internal">
        <lane id=":antrim_38_0" index="0" speed="10.00" length="32.89" shape="2254.65,3475.44 2267.70,3479.78 2277.05,3481.55 2282.70,3480.73 2284.65,3477.34"/>
    </edge>
    <edge id=":antrim_39" function="internal">
        <lane id=":antrim_39_0" index="0" speed="9.78" length="44.85" shape="2254.65,3475.44 2266.82,3468.86 2275.40,3469.07 2280.39,3476.06 2281.77,3489.83"/>
    </edge>
    <edge id=":athlone_0" function="internal">
        <lane id=":athlone_0_0" index="0" speed="10.00" length="38.62" shape="1270.67,1989.45 1263.23,1979.41 1255.80,1974.92 1248.37,1975.98 1240.94,1982.58"/>
    </edge>
    <edge id=":athlone_1" function="internal">
        <lane id=":athlone_1_0" index="0" speed="10.00" length="42.18" shape="1270.67,1989.45 1263.33,1979.82 1255.00,1974.52 1245.68,1973.52 1235.37,1976.85"/>
    </edge>
    <edge id=":athlone_2" function="internal">
        <lane id=":athlone_2_0" index="0" speed="10.00" length="55.26" shape="1270.67,1989.45 1244.04,1941.03"/>
    </edge>
    <edge id=":athlone_3" function="internal">
        <lane id=":athlone_3_0" index="0" speed="4.86" length="9.64" shape="1270.67,1989.45 1270.42,1987.02 1271.90,1985.11 1274.18,1984.39 1276.28,1985.52"/>
    </edge>
    <edge id=":athlone_4" function="internal">
        <lane id=":athlone_4_0" index="0" speed="4.09" length="6.33" shape="1270.67,1989.45 1270.84,1988.12 1272.16,1986.81 1273.84,1986.06 1275.07,1986.43"/>
    </edge>
    <edge id=":athlone_5" function="internal">
        <lane id=":athlone_5_0" index="0" speed="3.65" length="4.68" shape="1270.67,1989.45 1270.68,1988.00 1271.14,1987.23 1272.03,1987.13 1273.35,1987.70"/>
    </edge>
    <edge id=":athlone_6" function="internal">
        <lane id=":athlone_6_0" index="0" speed="3.50" length="3.95" shape="1273.72,1987.44 1272.82,1986.28 1272.46,1985.94 1272.64,1986.41 1273.35,1987.70"/>
    </edge>
    <edge id=":athlone_7" function="internal">
        <lane id=":athlone_7_0" index="0" speed="10.00" length="40.33" shape="1273.72,1987.44 1265.01,1978.20 1256.64,1974.32 1248.62,1975.78 1240.94,1982.58"/>
    </edge>
    <edge id=":athlone_8" function="internal">
        <lane id=":athlone_8_0" index="0" speed="10.00" length="46.18" shape="1273.72,1987.44 1264.41,1977.45 1254.67,1971.88 1244.51,1970.73 1233.92,1973.99"/>
    </edge>
    <edge id=":athlone_9" function="internal">
        <lane id=":athlone_9_0" index="0" speed="10.00" length="55.09" shape="1273.72,1987.44 1268.14,1979.12 1258.61,1964.40 1249.21,1949.60 1244.04,1941.03"/>
    </edge>
    <edge id=":athlone_10" function="internal">
        <lane id=":athlone_10_0" index="0" speed="8.57" length="35.53" shape="1273.72,1987.44 1281.75,1998.04 1284.65,2001.40 1282.43,1997.53 1275.07,1986.43"/>
    </edge>
    <edge id=":athlone_11" function="internal">
        <lane id=":athlone_11_0" index="0" speed="3.65" length="4.67" shape="1273.72,1987.44 1273.64,1986.00 1274.04,1985.20 1274.92,1985.04 1276.28,1985.52"/>
    </edge>
    <edge id=":athlone_12" function="internal">
        <lane id=":athlone_12_0" index="0" speed="10.00" length="36.80" shape="1261.20,1952.93 1260.88,1957.91 1263.29,1965.00 1268.42,1974.21 1276.28,1985.52"/>
    </edge>
    <edge id=":athlone_13" function="internal">
        <lane id=":athlone_13_0" index="0" speed="10.00" length="37.07" shape="1261.20,1952.93 1260.79,1957.99 1262.97,1965.25 1267.73,1974.73 1275.07,1986.43"/>
    </edge>
    <edge id=":athlone_14" function="internal">
        <lane id=":athlone_14_0" index="0" speed="10.00" length="37.56" shape="1261.20,1952.93 1260.68,1958.09 1262.53,1965.60 1266.76,1975.48 1273.35,1987.70"/>
    </edge>
    <edge id=":athlone_15" function="internal">
        <lane id=":athlone_15_0" index="0" speed="10.00" length="35.93" shape="1261.20,1952.93 1257.64,1958.95 1251.49,1968.01 1245.14,1976.94 1240.94,1982.58"/>
    </edge>
    <edge id=":athlone_16" function="internal">
        <lane id=":athlone_16_0" index="0" speed="10.00" length="34.69" shape="1261.20,1952.93 1257.36,1957.53 1250.17,1963.49 1241.67,1969.44 1233.92,1973.99"/>
    </edge>
    <edge id=":athlone_17" function="internal">
        <lane id=":athlone_17_0" index="0" speed="8.78" length="26.51" shape="1261.20,1952.93 1257.47,1956.69 1253.01,1954.56 1248.35,1948.64 1244.04,1941.03"/>
    </edge>
    <edge id=":athlone_18" function="internal">
        <lane id=":athlone_18_0" index="0" speed="10.00" length="54.41" shape="1252.19,1936.78 1256.00,1945.89 1263.53,1961.48 1271.41,1976.90 1276.28,1985.52"/>
    </edge>
    <edge id=":athlone_19" function="internal">
        <lane id=":athlone_19_0" index="0" speed="10.00" length="54.70" shape="1252.19,1936.78 1255.84,1946.01 1262.99,1961.88 1270.47,1977.61 1275.07,1986.43"/>
    </edge>
    <edge id=":athlone_20" function="internal">
        <lane id=":athlone_20_0" index="0" speed="10.00" length="55.17" shape="1252.19,1936.78 1255.61,1946.18 1262.24,1962.45 1269.14,1978.61 1273.35,1987.70"/>
    </edge>
    <edge id=":athlone_21" function="internal">
        <lane id=":athlone_21_0" index="0" speed="10.00" length="48.80" shape="1252.19,1936.78 1253.57,1948.87 1252.15,1960.54 1247.94,1971.77 1240.94,1982.58"/>
    </edge>
    <edge id=":athlone_22" function="internal">
        <lane id=":athlone_22_0" index="0" speed="10.00" length="45.12" shape="1252.19,1936.78 1253.17,1948.51 1250.45,1958.62 1244.03,1967.12 1233.92,1973.99"/>
    </edge>
    <edge id=":athlone_23" function="internal">
        <lane id=":athlone_23_0" index="0" speed="5.70" length="13.43" shape="1252.19,1936.78 1251.75,1940.90 1250.24,1942.98 1247.67,1943.02 1244.04,1941.03"/>
    </edge>
    <edge id=":athlone_24" function="internal">
        <lane id=":athlone_24_0" index="0" speed="5.94" length="14.34" shape="1240.40,1943.59 1244.30,1947.00 1246.21,1947.71 1246.12,1945.72 1244.04,1941.03"/>
    </edge>
    <edge id=":athlone_25" function="internal">
        <lane id=":athlone_25_0" index="0" speed="10.00" length="55.19" shape="1240.40,1943.59 1247.10,1951.05 1258.57,1964.36 1269.92,1977.77 1276.28,1985.52"/>
    </edge>
    <edge id=":athlone_26" function="internal">
        <lane id=":athlone_26_0" index="0" speed="10.00" length="55.11" shape="1240.40,1943.59 1246.94,1951.17 1258.03,1964.76 1268.98,1978.47 1275.07,1986.43"/>
    </edge>
    <edge id=":athlone_27" function="internal">
        <lane id=":athlone_27_0" index="0" speed="10.00" length="55.08" shape="1240.40,1943.59 1246.71,1951.35 1257.28,1965.33 1267.65,1979.48 1273.35,1987.70"/>
    </edge>
    <edge id=":athlone_28" function="internal">
        <lane id=":athlone_28_0" index="0" speed="10.00" length="43.50" shape="1240.40,1943.59 1247.09,1952.51 1249.41,1961.97 1247.36,1972.00 1240.94,1982.58"/>
    </edge>
    <edge id=":athlone_29" function="internal">
        <lane id=":athlone_29_0" index="0" speed="10.00" length="38.62" shape="1240.40,1943.59 1246.78,1952.32 1247.58,1960.38 1243.17,1967.64 1233.92,1973.99"/>
    </edge>
    <edge id=":athlone_30" function="internal">
        <lane id=":athlone_30_0" index="0" speed="5.66" length="12.30" shape="1238.43,1980.59 1240.87,1977.04 1241.18,1975.23 1239.34,1975.16 1235.37,1976.85"/>
    </edge>
    <edge id=":athlone_31" function="internal">
        <lane id=":athlone_31_0" index="0" speed="10.00" length="42.39" shape="1238.43,1980.59 1244.66,1970.70 1247.67,1960.81 1247.47,1950.92 1244.04,1941.03"/>
    </edge>
    <edge id=":athlone_32" function="internal">
        <lane id=":athlone_32_0" index="0" speed="10.00" length="40.28" shape="1238.43,1980.59 1245.93,1977.42 1257.43,1977.77 1268.90,1980.77 1276.28,1985.52"/>
    </edge>
    <edge id=":athlone_33" function="internal">
        <lane id=":athlone_33_0" index="0" speed="10.00" length="39.34" shape="1238.43,1980.59 1245.79,1977.53 1256.96,1978.13 1268.02,1981.43 1275.07,1986.43"/>
    </edge>
    <edge id=":athlone_34" function="internal">
        <lane id=":athlone_34_0" index="0" speed="10.00" length="44.57" shape="1238.43,1980.59 1247.68,1972.75 1256.78,1971.91 1265.43,1977.19 1273.35,1987.70"/>
    </edge>
    <edge id=":athlone_35" function="internal">
        <lane id=":athlone_35_0" index="0" speed="3.65" length="4.67" shape="1238.43,1980.59 1239.80,1980.15 1240.68,1980.33 1241.06,1981.14 1240.94,1982.58"/>
    </edge>
    <edge id=":athlone_36" function="internal">
        <lane id=":athlone_36_0" index="0" speed="6.67" length="17.61" shape="1250.83,1977.86 1251.04,1974.20 1249.46,1973.76 1246.10,1976.56 1240.94,1982.58"/>
    </edge>
    <edge id=":athlone_37" function="internal">
        <lane id=":athlone_37_0" index="0" speed="7.77" length="20.18" shape="1250.83,1977.86 1250.64,1974.08 1248.00,1972.65 1242.91,1973.58 1235.37,1976.85"/>
    </edge>
    <edge id=":athlone_38" function="internal">
        <lane id=":athlone_38_0" index="0" speed="10.00" length="37.58" shape="1250.83,1977.86 1250.52,1970.67 1248.67,1959.28 1246.20,1947.98 1244.04,1941.03"/>
    </edge>
    <edge id=":athlone_39" function="internal">
        <lane id=":athlone_39_0" index="0" speed="9.26" length="30.05" shape="1250.83,1977.86 1254.83,1974.40 1262.25,1975.78 1270.33,1980.11 1276.28,1985.52"/>
    </edge>
    <edge id=":athlone_40" function="internal">
        <lane id=":athlone_40_0" index="0" speed="9.02" length="29.12" shape="1250.83,1977.86 1254.69,1974.66 1261.81,1976.33 1269.51,1980.91 1275.07,1986.43"/>
    </edge>
    <edge id=":athlone_41" function="internal">
        <lane id=":athlone_41_0" index="0" speed="8.71" length="27.90" shape="1250.83,1977.86 1254.48,1975.02 1261.18,1977.12 1268.34,1982.05 1273.35,1987.70"/>
    </edge>
    <edge id=":belfast_0" function="internal">
        <lane id=":belfast_0_0" index="0" speed="4.31" length="6.67" shape="2494.09,3343.43 2494.94,3345.58 2495.53,3346.18 2495.83,3345.22 2495.87,3342.71"/>
    </edge>
    <edge id=":belfast_1" function="internal">
        <lane id=":belfast_1_0" index="0" speed="10.00" length="23.39" shape="2494.09,3343.43 2496.11,3351.31 2496.27,3357.43 2494.57,3361.81 2490.99,3364.43"/>
    </edge>
    <edge id=":belfast_2" function="internal">
        <lane id=":belfast_2_0" index="0" speed="6.85" length="16.61" shape="2494.09,3343.43 2493.79,3347.35 2491.30,3351.33 2487.74,3354.01 2484.21,3354.01"/>
    </edge>
    <edge id=":belfast_3" function="internal">
        <lane id=":belfast_3_0" index="0" speed="5.93" length="13.22" shape="2494.09,3343.43 2493.67,3346.49 2491.35,3349.52 2488.28,3351.40 2485.59,3351.01"/>
    </edge>
    <edge id=":belfast_4" function="internal">
        <lane id=":belfast_4_0" index="0" speed="5.89" length="13.08" shape="2494.09,3343.43 2493.67,3346.45 2491.36,3349.44 2488.30,3351.29 2485.65,3350.88"/>
    </edge>
    <edge id=":belfast_5" function="internal">
        <lane id=":belfast_5_0" index="0" speed="5.55" length="11.79" shape="2494.09,3343.43 2493.63,3346.11 2491.40,3348.70 2488.54,3350.23 2486.18,3349.72"/>
    </edge>
    <edge id=":belfast_6" function="internal">
        <lane id=":belfast_6_0" index="0" speed="3.76" length="4.99" shape="2494.09,3343.43 2493.74,3344.42 2492.50,3345.21 2491.08,3345.50 2490.18,3345.01"/>
    </edge>
    <edge id=":belfast_7" function="internal">
        <lane id=":belfast_7_0" index="0" speed="3.28" length="3.34" shape="2494.09,3343.43 2491.00,3344.68"/>
    </edge>
    <edge id=":belfast_8" function="internal">
        <lane id=":belfast_8_0" index="0" speed="5.48" length="12.02" shape="2494.09,3343.43 2493.96,3347.14 2492.75,3349.09 2490.46,3349.30 2487.08,3347.75"/>
    </edge>
    <edge id=":belfast_9" function="internal">
        <lane id=":belfast_9_0" index="0" speed="4.39" length="6.97" shape="2493.97,3343.48 2494.88,3345.72 2495.50,3346.33 2495.83,3345.33 2495.87,3342.71"/>
    </edge>
    <edge id=":belfast_10" function="internal">
        <lane id=":belfast_10_0" index="0" speed="10.00" length="23.35" shape="2493.97,3343.48 2496.05,3351.33 2496.25,3357.44 2494.56,3361.81 2490.99,3364.43"/>
    </edge>
    <edge id=":belfast_11" function="internal">
        <lane id=":belfast_11_0" index="0" speed="6.81" length="16.48" shape="2493.97,3343.48 2493.69,3347.36 2491.24,3351.33 2487.71,3354.00 2484.21,3354.01"/>
    </edge>
    <edge id=":belfast_12" function="internal">
        <lane id=":belfast_12_0" index="0" speed="5.89" length="13.09" shape="2493.97,3343.48 2493.57,3346.50 2491.29,3349.51 2488.25,3351.39 2485.59,3351.01"/>
    </edge>
    <edge id=":belfast_13" function="internal">
        <lane id=":belfast_13_0" index="0" speed="5.86" length="12.95" shape="2493.97,3343.48 2493.57,3346.47 2491.29,3349.44 2488.27,3351.28 2485.65,3350.88"/>
    </edge>
    <edge id=":belfast_14" function="internal">
        <lane id=":belfast_14_0" index="0" speed="5.52" length="11.65" shape="2493.97,3343.48 2493.53,3346.12 2491.34,3348.69 2488.51,3350.21 2486.18,3349.72"/>
    </edge>
    <edge id=":belfast_15" function="internal">
        <lane id=":belfast_15_0" index="0" speed="4.97" length="9.51" shape="2493.97,3343.48 2493.49,3345.53 2491.45,3347.39 2488.96,3348.36 2487.08,3347.75"/>
    </edge>
    <edge id=":belfast_16" function="internal">
        <lane id=":belfast_16_0" index="0" speed="3.72" length="4.84" shape="2493.97,3343.48 2493.64,3344.44 2492.44,3345.20 2491.05,3345.48 2490.18,3345.01"/>
    </edge>
    <edge id=":belfast_17" function="internal">
        <lane id=":belfast_17_0" index="0" speed="3.65" length="4.68" shape="2493.97,3343.48 2493.68,3344.89 2493.08,3345.57 2492.19,3345.49 2491.00,3344.68"/>
    </edge>
    <edge id=":belfast_18" function="internal">
        <lane id=":belfast_18_0" index="0" speed="4.83" length="8.68" shape="2493.15,3343.81 2494.44,3346.49 2495.32,3347.20 2495.80,3345.94 2495.87,3342.71"/>
    </edge>
    <edge id=":belfast_19" function="internal">
        <lane id=":belfast_19_0" index="0" speed="10.00" length="23.08" shape="2493.15,3343.81 2495.62,3351.51 2496.08,3357.51 2494.54,3361.82 2490.99,3364.43"/>
    </edge>
    <edge id=":belfast_20" function="internal">
        <lane id=":belfast_20_0" index="0" speed="6.58" length="15.62" shape="2493.15,3343.81 2493.02,3347.48 2490.79,3351.32 2487.51,3353.95 2484.21,3354.01"/>
    </edge>
    <edge id=":belfast_21" function="internal">
        <lane id=":belfast_21_0" index="0" speed="5.65" length="12.16" shape="2493.15,3343.81 2492.89,3346.62 2490.83,3349.49 2488.05,3351.32 2485.59,3351.01"/>
    </edge>
    <edge id=":belfast_22" function="internal">
        <lane id=":belfast_22_0" index="0" speed="5.62" length="12.02" shape="2493.15,3343.81 2492.88,3346.58 2490.84,3349.41 2488.07,3351.20 2485.65,3350.88"/>
    </edge>
    <edge id=":belfast_23" function="internal">
        <lane id=":belfast_23_0" index="0" speed="5.27" length="10.69" shape="2493.15,3343.81 2492.84,3346.24 2490.88,3348.66 2488.31,3350.13 2486.18,3349.72"/>
    </edge>
    <edge id=":belfast_24" function="internal">
        <lane id=":belfast_24_0" index="0" speed="4.71" length="8.51" shape="2493.15,3343.81 2492.79,3345.64 2490.99,3347.35 2488.76,3348.27 2487.08,3347.75"/>
    </edge>
    <edge id=":belfast_25" function="internal">
        <lane id=":belfast_25_0" index="0" speed="9.54" length="44.53" shape="2493.15,3343.81 2486.74,3328.43 2484.25,3323.44 2485.67,3328.86 2491.00,3344.68"/>
    </edge>
    <edge id=":belfast_26" function="internal">
        <lane id=":belfast_26_0" index="0" speed="3.65" length="4.67" shape="2493.15,3343.81 2492.86,3345.22 2492.27,3345.89 2491.38,3345.82 2490.18,3345.01"/>
    </edge>
    <edge id=":belfast_27" function="internal">
        <lane id=":belfast_27_0" index="0" speed="3.22" length="2.78" shape="2489.38,3342.76 2489.83,3343.56 2490.17,3344.52 2490.31,3345.16 2490.18,3345.01"/>
    </edge>
    <edge id=":belfast_28" function="internal">
        <lane id=":belfast_28_0" index="0" speed="3.27" length="2.87" shape="2489.38,3342.76 2489.95,3343.51 2490.56,3344.36 2490.97,3344.89 2491.00,3344.68"/>
    </edge>
    <edge id=":belfast_29" function="internal">
        <lane id=":belfast_29_0" index="0" speed="5.63" length="10.88" shape="2489.38,3342.76 2492.31,3345.66 2494.37,3346.62 2495.55,3345.64 2495.87,3342.71"/>
    </edge>
    <edge id=":belfast_30" function="internal">
        <lane id=":belfast_30_0" index="0" speed="9.16" length="23.95" shape="2489.38,3342.76 2492.54,3348.10 2494.38,3354.71 2494.13,3360.76 2490.99,3364.43"/>
    </edge>
    <edge id=":belfast_31" function="internal">
        <lane id=":belfast_31_0" index="0" speed="5.18" length="10.36" shape="2487.91,3345.95 2488.51,3348.36 2487.75,3351.37 2486.15,3353.68 2484.21,3354.01"/>
    </edge>
    <edge id=":belfast_32" function="internal">
        <lane id=":belfast_32_0" index="0" speed="4.17" length="6.53" shape="2487.91,3345.95 2488.25,3347.51 2487.72,3349.47 2486.71,3350.94 2485.59,3351.01"/>
    </edge>
    <edge id=":belfast_33" function="internal">
        <lane id=":belfast_33_0" index="0" speed="3.53" length="4.15" shape="2487.91,3345.95 2486.18,3349.72"/>
    </edge>
    <edge id=":belfast_34" function="internal">
        <lane id=":belfast_34_0" index="0" speed="6.74" length="20.81" shape="2487.91,3345.95 2482.87,3340.32 2481.05,3338.75 2482.46,3341.22 2487.08,3347.75"/>
    </edge>
    <edge id=":belfast_35" function="internal">
        <lane id=":belfast_35_0" index="0" speed="4.49" length="7.92" shape="2487.91,3345.95 2489.19,3348.03 2489.24,3349.55 2488.06,3350.50 2485.65,3350.88"/>
    </edge>
    <edge id=":belfast_36" function="internal">
        <lane id=":belfast_36_0" index="0" speed="4.84" length="9.55" shape="2487.62,3346.58 2485.23,3344.14 2484.35,3343.52 2484.96,3344.72 2487.08,3347.75"/>
    </edge>
    <edge id=":belfast_37" function="internal">
        <lane id=":belfast_37_0" index="0" speed="4.86" length="8.78" shape="2487.62,3346.58 2489.90,3348.75 2491.09,3349.21 2491.18,3347.96 2490.18,3345.01"/>
    </edge>
    <edge id=":belfast_38" function="internal">
        <lane id=":belfast_38_0" index="0" speed="5.19" length="10.08" shape="2487.62,3346.58 2490.23,3349.03 2491.67,3349.52 2491.92,3348.08 2491.00,3344.68"/>
    </edge>
    <edge id=":belfast_39" function="internal">
        <lane id=":belfast_39_0" index="0" speed="6.64" length="15.58" shape="2487.62,3346.58 2491.38,3349.80 2494.01,3350.23 2495.50,3347.87 2495.87,3342.71"/>
    </edge>
    <edge id=":belfast_40" function="internal">
        <lane id=":belfast_40_0" index="0" speed="8.30" length="19.84" shape="2487.62,3346.58 2490.58,3350.97 2492.70,3356.45 2493.12,3361.46 2490.99,3364.43"/>
    </edge>
    <edge id=":belfast_41" function="internal">
        <lane id=":belfast_41_0" index="0" speed="4.98" length="9.57" shape="2487.62,3346.58 2488.21,3348.77 2487.50,3351.55 2486.01,3353.70 2484.21,3354.01"/>
    </edge>
    <edge id=":belfast_42" function="internal">
        <lane id=":belfast_42_0" index="0" speed="3.96" length="5.73" shape="2487.62,3346.58 2487.94,3347.93 2487.47,3349.65 2486.57,3350.94 2485.59,3351.01"/>
    </edge>
    <edge id=":belfast_43" function="internal">
        <lane id=":belfast_43_0" index="0" speed="3.92" length="5.57" shape="2487.62,3346.58 2487.93,3347.89 2487.48,3349.56 2486.60,3350.82 2485.65,3350.88"/>
    </edge>
    <edge id=":belfast_44" function="internal">
        <lane id=":belfast_44_0" index="0" speed="3.75" length="5.05" shape="2487.62,3346.58 2488.44,3347.91 2488.47,3348.87 2487.72,3349.48 2486.18,3349.72"/>
    </edge>
    <edge id=":belfast_45" function="internal">
        <lane id=":belfast_45_0" index="0" speed="7.47" length="25.46" shape="2487.88,3346.01 2480.53,3340.58 2477.80,3339.39 2479.68,3342.44 2486.18,3349.72"/>
    </edge>
    <edge id=":belfast_46" function="internal">
        <lane id=":belfast_46_0" index="0" speed="4.31" length="6.72" shape="2487.88,3346.01 2486.03,3344.71 2485.28,3344.57 2485.63,3345.58 2487.08,3347.75"/>
    </edge>
    <edge id=":belfast_47" function="internal">
        <lane id=":belfast_47_0" index="0" speed="4.10" length="5.32" shape="2487.88,3346.01 2489.51,3347.11 2490.44,3347.31 2490.66,3346.61 2490.18,3345.01"/>
    </edge>
    <edge id=":belfast_48" function="internal">
        <lane id=":belfast_48_0" index="0" speed="4.51" length="6.69" shape="2487.88,3346.01 2489.92,3347.36 2491.11,3347.59 2491.47,3346.70 2491.00,3344.68"/>
    </edge>
    <edge id=":belfast_49" function="internal">
        <lane id=":belfast_49_0" index="0" speed="6.34" length="13.01" shape="2487.88,3346.01 2491.49,3348.23 2494.02,3348.42 2495.48,3346.58 2495.87,3342.71"/>
    </edge>
    <edge id=":belfast_50" function="internal">
        <lane id=":belfast_50_0" index="0" speed="7.62" length="18.00" shape="2486.51,3349.00 2489.70,3352.53 2492.21,3357.22 2492.99,3361.66 2490.99,3364.43"/>
    </edge>
    <edge id=":belfast_51" function="internal">