<?xml version="1.0" encoding="UTF-8"?>

<!-- generated on 2024-09-30 22:11:38 by Eclipse SUMO netconvert Version 1.18.0
<configuration xmlns:xsi="http://www.w3.org/2001/XMLSchema-instance" xsi:noNamespaceSchemaLocation="http://sumo.dlr.de/xsd/netconvertConfiguration.xsd">

    <input>
        <node-files value="nod.xml"/>
        <edge-files value="edge_xmls/05144.xml"/>
    </input>

    <output>
        <output-file value="networks/05144.net.xml"/>
    </output>

</configuration>
-->

<net version="1.16" junctionCornerDetail="5" limitTurnSpeed="5.50" xmlns:xsi="http://www.w3.org/2001/XMLSchema-instance" xsi:noNamespaceSchemaLocation="http://sumo.dlr.de/xsd/net_file.xsd">

    <location netOffset="-682.00,4368.00" convBoundary="0.00,0.00,2498.00,3881.00" origBoundary="682.00,-4368.00,3180.00,-487.00" projParameter="!"/>

    <edge id=":antrim_0" function="internal">
        <lane id=":antrim_0_0" index="0" speed="10.00" length="26.48" shape="2297.03,3484.16 2291.86,3485.95 2284.26,3487.30 2276.55,3487.98 2271.01,3487.79"/>
    </edge>
    <edge id=":antrim_1" function="internal">
        <lane id=":antrim_1_0" index="0" speed="10.00" length="55.37" shape="2297.03,3484.16 2289.67,3485.73 2278.55,3483.78 2263.67,3478.30 2245.04,3469.29"/>
    </edge>
    <edge id=":antrim_2" function="internal">
        <lane id=":antrim_2_0" index="0" speed="10.00" length="46.63" shape="2297.03,3484.16 2290.34,3485.45 2281.53,3482.49 2270.58,3475.27 2257.51,3463.78"/>
    </edge>
    <edge id=":antrim_3" function="internal">
        <lane id=":antrim_3_0" index="0" speed="10.00" length="48.85" shape="2297.03,3484.16 2288.12,3486.87 2278.29,3484.74 2267.53,3477.75 2255.85,3465.90"/>
    </edge>
    <edge id=":antrim_4" function="internal">
        <lane id=":antrim_4_0" index="0" speed="10.00" length="46.41" shape="2297.03,3484.16 2290.49,3485.23 2282.25,3481.52 2272.32,3473.01 2260.70,3459.70"/>
    </edge>
    <edge id=":antrim_5" function="internal">
        <lane id=":antrim_5_0" index="0" speed="10.00" length="46.41" shape="2297.03,3484.16 2290.49,3485.23 2282.26,3481.50 2272.34,3472.98 2260.74,3459.65"/>
    </edge>
    <edge id=":antrim_6" function="internal">
        <lane id=":antrim_6_0" index="0" speed="10.00" length="46.43" shape="2297.03,3484.16 2290.51,3485.20 2282.36,3481.36 2272.59,3472.65 2261.20,3459.07"/>
    </edge>
    <edge id=":antrim_7" function="internal">
        <lane id=":antrim_7_0" index="0" speed="10.00" length="59.41" shape="2297.03,3484.16 2290.41,3478.91 2278.80,3464.78 2267.20,3448.72 2260.59,3437.69"/>
    </edge>
    <edge id=":antrim_8" function="internal">
        <lane id=":antrim_8_0" index="0" speed="10.00" length="58.83" shape="2297.03,3484.16 2291.58,3478.19 2282.02,3462.80 2272.48,3445.51 2267.06,3433.83"/>
    </edge>
    <edge id=":antrim_9" function="internal">
        <lane id=":antrim_9_0" index="0" speed="10.00" length="35.88" shape="2297.03,3484.16 2292.93,3481.66 2288.61,3472.61 2285.17,3461.35 2283.70,3452.19"/>
    </edge>
    <edge id=":antrim_10" function="internal">
        <lane id=":antrim_10_0" index="0" speed="10.00" length="35.84" shape="2297.03,3484.16 2293.37,3481.48 2290.23,3471.97 2288.16,3460.24 2287.73,3450.87"/>
    </edge>
    <edge id=":antrim_11" function="internal">
        <lane id=":antrim_11_0" index="0" speed="10.00" length="51.43" shape="2294.34,3448.72 2292.06,3465.88 2287.97,3478.86 2281.23,3486.53 2271.01,3487.79"/>
    </edge>
    <edge id=":antrim_12" function="internal">
        <lane id=":antrim_12_0" index="0" speed="10.00" length="67.02" shape="2294.34,3448.72 2289.24,3466.35 2278.57,3475.27 2263.46,3476.06 2245.04,3469.29"/>
    </edge>
    <edge id=":antrim_13" function="internal">
        <lane id=":antrim_13_0" index="0" speed="10.00" length="42.54" shape="2294.34,3448.72 2289.16,3455.68 2278.04,3461.88 2265.86,3465.28 2257.51,3463.78"/>
    </edge>
    <edge id=":antrim_14" function="internal">
        <lane id=":antrim_14_0" index="0" speed="10.00" length="44.91" shape="2294.34,3448.72 2288.81,3456.09 2276.97,3463.17 2264.18,3467.32 2255.85,3465.90"/>
    </edge>
    <edge id=":antrim_15" function="internal">
        <lane id=":antrim_15_0" index="0" speed="9.80" length="35.36" shape="2291.04,3449.80 2286.75,3456.06 2277.65,3460.68 2267.67,3462.34 2260.70,3459.70"/>
    </edge>
    <edge id=":antrim_16" function="internal">
        <lane id=":antrim_16_0" index="0" speed="9.79" length="35.31" shape="2291.04,3449.80 2286.75,3456.05 2277.67,3460.66 2267.70,3462.30 2260.74,3459.65"/>
    </edge>
    <edge id=":antrim_17" function="internal">
        <lane id=":antrim_17_0" index="0" speed="9.68" length="34.78" shape="2291.04,3449.80 2286.81,3455.98 2277.85,3460.41 2268.03,3461.85 2261.20,3459.07"/>
    </edge>
    <edge id=":antrim_18" function="internal">
        <lane id=":antrim_18_0" index="0" speed="9.31" length="36.19" shape="2291.04,3449.80 2286.41,3452.80 2276.75,3450.16 2266.62,3444.31 2260.59,3437.69"/>
    </edge>
    <edge id=":antrim_19" function="internal">
        <lane id=":antrim_19_0" index="0" speed="9.50" length="38.86" shape="2291.04,3449.80 2287.37,3456.18 2280.32,3453.52 2272.62,3445.01 2267.06,3433.83"/>
    </edge>
    <edge id=":antrim_20" function="internal">
        <lane id=":antrim_20_0" index="0" speed="4.73" length="9.07" shape="2291.04,3449.80 2289.80,3451.61 2287.30,3452.92 2284.83,3453.26 2283.70,3452.19"/>
    </edge>
    <edge id=":antrim_21" function="internal">
        <lane id=":antrim_21_0" index="0" speed="3.75" length="5.08" shape="2291.04,3449.80 2290.61,3451.31 2289.92,3451.99 2288.96,3451.85 2287.73,3450.87"/>
    </edge>
    <edge id=":antrim_22" function="internal">
        <lane id=":antrim_22_0" index="0" speed="6.89" length="21.74" shape="2290.06,3450.12 2289.76,3442.22 2289.27,3439.71 2288.60,3442.60 2287.73,3450.87"/>
    </edge>
    <edge id=":antrim_23" function="internal">
        <lane id=":antrim_23_0" index="0" speed="10.00" length="43.40" shape="2290.06,3450.12 2288.03,3459.92 2282.95,3472.73 2276.65,3483.65 2271.01,3487.79"/>
    </edge>
    <edge id=":antrim_24" function="internal">
        <lane id=":antrim_24_0" index="0" speed="10.00" length="51.02" shape="2290.06,3450.12 2284.20,3457.44 2270.56,3464.59 2255.42,3469.29 2245.04,3469.29"/>
    </edge>
    <edge id=":antrim_25" function="internal">
        <lane id=":antrim_25_0" index="0" speed="10.00" length="38.47" shape="2290.06,3450.12 2285.94,3456.87 2276.25,3462.59 2265.32,3465.50 2257.51,3463.78"/>
    </edge>
    <edge id=":antrim_26" function="internal">
        <lane id=":antrim_26_0" index="0" speed="10.00" length="38.16" shape="2290.06,3450.12 2285.91,3456.88 2276.18,3462.60 2265.35,3465.37 2257.86,3463.33"/>
        <lane id=":antrim_26_1" index="1" speed="9.27" length="32.50" shape="2286.88,3451.15 2283.54,3457.36 2275.60,3461.83 2266.55,3463.37 2259.88,3460.76"/>
    </edge>
    <edge id=":antrim_28" function="internal">
        <lane id=":antrim_28_0" index="0" speed="9.07" length="31.54" shape="2286.88,3451.15 2283.64,3457.22 2275.93,3461.37 2267.15,3462.55 2260.70,3459.70"/>
    </edge>
    <edge id=":antrim_29" function="internal">
        <lane id=":antrim_29_0" index="0" speed="9.06" length="31.49" shape="2286.88,3451.15 2283.64,3457.21 2275.94,3461.35 2267.18,3462.52 2260.74,3459.65"/>
    </edge>
    <edge id=":antrim_30" function="internal">
        <lane id=":antrim_30_0" index="0" speed="8.95" length="30.97" shape="2286.88,3451.15 2283.69,3457.13 2276.12,3461.10 2267.51,3462.06 2261.20,3459.07"/>
    </edge>
    <edge id=":antrim_31" function="internal">
        <lane id=":antrim_31_0" index="0" speed="8.75" length="33.11" shape="2286.88,3451.15 2283.30,3453.96 2275.02,3450.85 2266.10,3444.53 2260.59,3437.69"/>
    </edge>
    <edge id=":antrim_32" function="internal">
        <lane id=":antrim_32_0" index="0" speed="8.22" length="29.79" shape="2286.88,3451.15 2284.22,3453.32 2278.01,3448.92 2271.28,3441.30 2267.06,3433.83"/>
    </edge>
    <edge id=":antrim_33" function="internal">
        <lane id=":antrim_33_0" index="0" speed="3.71" length="4.89" shape="2286.88,3451.15 2286.47,3452.61 2285.80,3453.26 2284.88,3453.12 2283.70,3452.19"/>
    </edge>
    <edge id=":antrim_34" function="internal">
        <lane id=":antrim_34_0" index="0" speed="5.74" length="14.27" shape="2285.81,3451.50 2286.18,3456.63 2286.62,3458.24 2287.14,3456.32 2287.73,3450.87"/>
    </edge>
    <edge id=":antrim_35" function="internal">
        <lane id=":antrim_35_0" index="0" speed="10.00" length="40.29" shape="2285.81,3451.50 2284.48,3461.07 2280.70,3473.38 2275.78,3483.82 2271.01,3487.79"/>
    </edge>
    <edge id=":antrim_36" function="internal">
        <lane id=":antrim_36_0" index="0" speed="10.00" length="56.85" shape="2285.81,3451.50 2283.02,3466.31 2274.07,3473.96 2260.81,3474.83 2245.04,3469.29"/>
    </edge>
    <edge id=":antrim_37" function="internal">
        <lane id=":antrim_37_0" index="0" speed="9.67" length="34.39" shape="2285.81,3451.50 2282.47,3458.03 2274.22,3463.28 2264.69,3465.71 2257.51,3463.78"/>
    </edge>
    <edge id=":antrim_38" function="internal">
        <lane id=":antrim_38_0" index="0" speed="9.42" length="34.09" shape="2285.81,3451.50 2282.43,3458.05 2274.16,3463.28 2264.72,3465.59 2257.86,3463.33"/>
    </edge>
    <edge id=":antrim_39" function="internal">
        <lane id=":antrim_39_0" index="0" speed="8.88" length="30.51" shape="2285.81,3451.50 2282.84,3457.46 2275.47,3461.49 2267.00,3462.57 2260.70,3459.70"/>
    </edge>
    <edge id=":antrim_40" function="internal">
        <lane id=":antrim_40_0" index="0" speed="8.86" length="30.45" shape="2285.81,3451.50 2282.84,3457.45 2275.48,3461.45 2267.02,3462.52 2260.74,3459.65"/>
    </edge>
    <edge id=":antrim_41" function="internal">
        <lane id=":antrim_41_0" index="0" speed="8.74" length="29.77" shape="2285.81,3451.50 2282.87,3457.26 2275.61,3461.06 2267.30,3461.97 2261.20,3459.07"/>
    </edge>
    <edge id=":antrim_42" function="internal">
        <lane id=":antrim_42_0" index="0" speed="8.61" length="32.35" shape="2285.81,3451.50 2282.51,3454.25 2274.59,3451.02 2265.97,3444.58 2260.59,3437.69"/>
    </edge>
    <edge id=":antrim_43" function="internal">
        <lane id=":antrim_43_0" index="0" speed="8.08" length="29.05" shape="2285.81,3451.50 2283.42,3453.51 2277.55,3448.96 2271.13,3441.26 2267.06,3433.83"/>
    </edge>
    <edge id=":antrim_44" function="internal">
        <lane id=":antrim_44_0" index="0" speed="10.00" length="74.87" shape="2285.81,3451.50 2284.35,3423.63 2283.51,3414.45 2283.29,3423.97 2283.70,3452.19"/>
    </edge>
    <edge id=":antrim_45" function="internal">
        <lane id=":antrim_45_0" index="0" speed="10.00" length="0.10" shape="2283.67,3452.20 2283.70,3452.19"/>
    </edge>
    <edge id=":antrim_46" function="internal">
        <lane id=":antrim_46_0" index="0" speed="6.95" length="21.45" shape="2283.67,3452.20 2284.74,3459.72 2285.77,3462.00 2286.77,3459.06 2287.73,3450.87"/>
    </edge>
    <edge id=":antrim_47" function="internal">
        <lane id=":antrim_47_0" index="0" speed="10.00" length="39.02" shape="2283.67,3452.20 2282.93,3461.65 2279.92,3473.73 2275.62,3483.95 2271.01,3487.79"/>
    </edge>
    <edge id=":antrim_48" function="internal">
        <lane id=":antrim_48_0" index="0" speed="10.00" length="44.70" shape="2283.67,3452.20 2279.14,3459.18 2267.66,3465.61 2254.53,3469.61 2245.04,3469.29"/>
    </edge>
    <edge id=":antrim_49" function="internal">
        <lane id=":antrim_49_0" index="0" speed="9.28" length="32.43" shape="2283.67,3452.20 2280.88,3458.60 2273.35,3463.62 2264.43,3465.82 2257.51,3463.78"/>
    </edge>
    <edge id=":antrim_50" function="internal">
        <lane id=":antrim_50_0" index="0" speed="9.05" length="32.15" shape="2283.67,3452.20 2280.85,3458.62 2273.28,3463.62 2264.46,3465.69 2257.86,3463.33"/>
    </edge>
    <edge id=":antrim_51" function="internal">
        <lane id=":antrim_51_0" index="0" speed="8.42" length="28.00" shape="2283.67,3452.20 2281.15,3457.64 2274.39,3461.32 2266.53,3462.32 2260.70,3459.70"/>
    </edge>
    <edge id=":antrim_52" function="internal">
        <lane id=":antrim_52_0" index="0" speed="8.41" length="27.94" shape="2283.67,3452.20 2281.15,3457.62 2274.40,3461.29 2266.55,3462.27 2260.74,3459.65"/>
    </edge>
    <edge id=":antrim_53" function="internal">
        <lane id=":antrim_53_0" index="0" speed="8.28" length="27.26" shape="2283.67,3452.20 2281.18,3457.43 2274.53,3460.89 2266.83,3461.72 2261.20,3459.07"/>
    </edge>
    <edge id=":antrim_54" function="internal">
        <lane id=":antrim_54_0" index="0" speed="8.13" length="29.29" shape="2283.67,3452.20 2281.33,3454.43 2275.06,3450.35 2268.02,3443.16 2263.38,3436.03"/>
    </edge>
    <edge id=":antrim_55" function="internal">
        <lane id=":antrim_55_0" index="0" speed="7.82" length="27.66" shape="2283.67,3452.20 2281.79,3453.90 2276.62,3449.05 2270.82,3441.18 2267.06,3433.83"/>
    </edge>
    <edge id=":antrim_56" function="internal">
        <lane id=":antrim_56_0" index="0" speed="5.50" length="12.90" shape="2282.03,3452.73 2282.85,3457.36 2283.40,3458.81 2283.68,3457.09 2283.70,3452.19"/>
    </edge>
    <edge id=":antrim_57" function="internal">
        <lane id=":antrim_57_0" index="0" speed="7.48" length="24.76" shape="2282.03,3452.73 2283.71,3461.21 2285.22,3463.73 2286.56,3460.28 2287.73,3450.87"/>
    </edge>
    <edge id=":antrim_58" function="internal">
        <lane id=":antrim_58_0" index="0" speed="10.00" length="38.11" shape="2282.03,3452.73 2281.74,3462.08 2279.33,3473.99 2275.51,3484.04 2271.01,3487.79"/>
    </edge>
    <edge id=":antrim_59" function="internal">
        <lane id=":antrim_59_0" index="0" speed="10.00" length="43.13" shape="2282.03,3452.73 2277.93,3459.61 2266.99,3465.86 2254.33,3469.69 2245.04,3469.29"/>
    </edge>
    <edge id=":antrim_60" function="internal">
        <lane id=":antrim_60_0" index="0" speed="8.99" length="30.96" shape="2282.03,3452.73 2279.67,3459.03 2272.68,3463.86 2264.23,3465.89 2257.51,3463.78"/>
    </edge>
    <edge id=":antrim_61" function="internal">
        <lane id=":antrim_61_0" index="0" speed="8.76" length="30.60" shape="2282.03,3452.73 2279.62,3459.00 2272.58,3463.80 2264.23,3465.72 2257.86,3463.33"/>
    </edge>
    <edge id=":antrim_62" function="internal">
        <lane id=":antrim_62_0" index="0" speed="8.07" length="26.06" shape="2282.03,3452.73 2279.83,3457.76 2273.54,3461.19 2266.16,3462.12 2260.70,3459.70"/>
    </edge>
    <edge id=":antrim_63" function="internal">
        <lane id=":antrim_63_0" index="0" speed="8.06" length="26.00" shape="2282.03,3452.73 2279.83,3457.75 2273.55,3461.15 2266.18,3462.08 2260.74,3459.65"/>
    </edge>
    <edge id=":antrim_64" function="internal">
        <lane id=":antrim_64_0" index="0" speed="7.93" length="25.31" shape="2282.03,3452.73 2279.86,3457.56 2273.68,3460.75 2266.47,3461.52 2261.20,3459.07"/>
    </edge>
    <edge id=":antrim_65" function="internal">
        <lane id=":antrim_65_0" index="0" speed="7.91" length="28.08" shape="2282.03,3452.73 2280.08,3454.69 2274.33,3450.38 2267.76,3443.07 2263.38,3436.03"/>
    </edge>
    <edge id=":antrim_66" function="internal">
        <lane id=":antrim_66_0" index="0" speed="7.63" length="26.69" shape="2282.03,3452.73 2280.54,3454.21 2275.90,3449.14 2270.58,3441.14 2267.06,3433.83"/>
    </edge>
    <edge id=":antrim_67" function="internal">
        <lane id=":antrim_67_0" index="0" speed="5.41" length="11.89" shape="2280.87,3453.11 2282.19,3457.11 2283.10,3458.29 2283.60,3456.65 2283.70,3452.19"/>
    </edge>
    <edge id=":antrim_68" function="internal">
        <lane id=":antrim_68_0" index="0" speed="7.06" length="20.82" shape="2280.87,3453.11 2283.20,3459.74 2285.13,3461.57 2286.64,3458.62 2287.73,3450.87"/>
    </edge>
    <edge id=":antrim_69" function="internal">
        <lane id=":antrim_69_0" index="0" speed="10.00" length="38.10" shape="2280.87,3453.11 2281.42,3462.34 2279.72,3474.20 2276.13,3484.19 2271.01,3487.79"/>
    </edge>
    <edge id=":antrim_70" function="internal">
        <lane id=":antrim_70_0" index="0" speed="10.00" length="42.13" shape="2280.87,3453.11 2277.39,3459.83 2266.81,3465.96 2254.29,3469.71 2245.04,3469.29"/>
    </edge>
    <edge id=":antrim_71" function="internal">
        <lane id=":antrim_71_0" index="0" speed="8.61" length="29.81" shape="2280.87,3453.11 2279.07,3459.09 2272.37,3463.76 2264.09,3465.78 2257.51,3463.78"/>
    </edge>
    <edge id=":antrim_72" function="internal">
        <lane id=":antrim_72_0" index="0" speed="7.88" length="25.67" shape="2277.82,3454.10 2276.21,3459.31 2270.37,3463.46 2263.27,3465.24 2257.86,3463.33"/>
    </edge>
    <edge id=":antrim_73" function="internal">
        <lane id=":antrim_73_0" index="0" speed="7.14" length="21.04" shape="2277.82,3454.10 2276.36,3458.08 2271.27,3460.83 2265.18,3461.62 2260.70,3459.70"/>
    </edge>
    <edge id=":antrim_74" function="internal">
        <lane id=":antrim_74_0" index="0" speed="7.13" length="20.97" shape="2277.82,3454.10 2276.36,3458.06 2271.29,3460.80 2265.21,3461.58 2260.74,3459.65"/>
    </edge>
    <edge id=":antrim_75" function="internal">
        <lane id=":antrim_75_0" index="0" speed="6.99" length="20.27" shape="2277.82,3454.10 2276.38,3457.87 2271.41,3460.40 2265.50,3461.02 2261.20,3459.07"/>
    </edge>
    <edge id=":antrim_76" function="internal">
        <lane id=":antrim_76_0" index="0" speed="8.07" length="30.66" shape="2277.82,3454.10 2277.70,3458.18 2273.68,3454.19 2268.12,3445.64 2263.38,3436.03"/>
    </edge>
    <edge id=":antrim_77" function="internal">
        <lane id=":antrim_77_0" index="0" speed="8.31" length="33.52" shape="2277.82,3454.10 2267.53,3453.07 2262.30,3449.35 2262.15,3442.94 2267.06,3433.83"/>
    </edge>
    <edge id=":antrim_78" function="internal">
        <lane id=":antrim_78_0" index="0" speed="5.66" length="14.13" shape="2266.16,3434.36 2268.14,3439.21 2268.95,3440.74 2268.59,3438.94 2267.06,3433.83"/>
    </edge>
    <edge id=":antrim_79" function="internal">
        <lane id=":antrim_79_0" index="0" speed="9.93" length="43.18" shape="2266.16,3434.36 2274.03,3452.65 2279.58,3461.72 2282.80,3461.56 2283.70,3452.19"/>
    </edge>
    <edge id=":antrim_80" function="internal">
        <lane id=":antrim_80_0" index="0" speed="10.00" length="47.21" shape="2266.16,3434.36 2274.57,3453.30 2280.97,3462.36 2285.36,3461.55 2287.73,3450.87"/>
    </edge>
    <edge id=":antrim_81" function="internal">
        <lane id=":antrim_81_0" index="0" speed="10.00" length="54.12" shape="2266.16,3434.36 2268.91,3446.32 2271.44,3464.49 2272.55,3480.95 2271.01,3487.79"/>
    </edge>
    <edge id=":antrim_82" function="internal">
        <lane id=":antrim_82_0" index="0" speed="10.00" length="43.66" shape="2266.16,3434.36 2265.35,3443.89 2259.77,3456.48 2252.12,3466.74 2245.04,3469.29"/>
    </edge>
    <edge id=":antrim_83" function="internal">
        <lane id=":antrim_83_0" index="0" speed="8.98" length="34.01" shape="2266.16,3434.36 2267.09,3443.32 2265.46,3454.49 2262.02,3462.95 2257.51,3463.78"/>
    </edge>
    <edge id=":antrim_84" function="internal">
        <lane id=":antrim_84_0" index="0" speed="8.41" length="30.75" shape="2266.16,3434.36 2267.37,3442.93 2266.40,3453.20 2263.75,3460.65 2259.88,3460.76"/>
    </edge>
    <edge id=":antrim_85" function="internal">
        <lane id=":antrim_85_0" index="0" speed="8.19" length="29.43" shape="2266.16,3434.36 2267.40,3442.67 2266.64,3452.59 2264.27,3459.73 2260.70,3459.70"/>
    </edge>
    <edge id=":antrim_86" function="internal">
        <lane id=":antrim_86_0" index="0" speed="8.18" length="29.37" shape="2266.16,3434.36 2267.40,3442.65 2266.65,3452.55 2264.29,3459.68 2260.74,3459.65"/>
    </edge>
    <edge id=":antrim_87" function="internal">
        <lane id=":antrim_87_0" index="0" speed="8.04" length="28.57" shape="2266.16,3434.36 2267.40,3442.46 2266.75,3452.15 2264.56,3459.13 2261.20,3459.07"/>
    </edge>
    <edge id=":antrim_88" function="internal">
        <lane id=":antrim_88_0" index="0" speed="3.67" length="4.74" shape="2266.16,3434.36 2266.09,3435.82 2265.60,3436.59 2264.70,3436.65 2263.38,3436.03"/>
    </edge>
    <edge id=":antrim_89" function="internal">
        <lane id=":antrim_89_0" index="0" speed="4.74" length="9.17" shape="2265.00,3435.06 2263.63,3431.97 2263.05,3431.01 2263.25,3432.19 2264.23,3435.52"/>
    </edge>
    <edge id=":antrim_90" function="internal">
        <lane id=":antrim_90_0" index="0" speed="10.00" length="43.86" shape="2265.00,3435.06 2273.38,3453.25 2279.29,3462.17 2282.73,3461.81 2283.70,3452.19"/>
    </edge>
    <edge id=":antrim_91" function="internal">
        <lane id=":antrim_91_0" index="0" speed="10.00" length="47.76" shape="2265.00,3435.06 2273.91,3453.81 2280.67,3462.70 2285.27,3461.72 2287.73,3450.87"/>
    </edge>
    <edge id=":antrim_92" function="internal">
        <lane id=":antrim_92_0" index="0" speed="10.00" length="53.56" shape="2265.00,3435.06 2268.01,3446.87 2270.96,3464.81 2272.42,3481.06 2271.01,3487.79"/>
    </edge>
    <edge id=":antrim_93" function="internal">
        <lane id=":antrim_93_0" index="0" speed="10.00" length="42.56" shape="2265.00,3435.06 2264.44,3444.45 2259.26,3456.80 2251.96,3466.84 2245.04,3469.29"/>
    </edge>
    <edge id=":antrim_94" function="internal">
        <lane id=":antrim_94_0" index="0" speed="8.83" length="33.11" shape="2265.00,3435.06 2266.18,3443.87 2264.95,3454.81 2261.87,3463.05 2257.51,3463.78"/>
    </edge>
    <edge id=":antrim_95" function="internal">
        <lane id=":antrim_95_0" index="0" speed="8.25" length="29.78" shape="2265.00,3435.06 2266.42,3443.41 2265.83,3453.42 2263.54,3460.68 2259.88,3460.76"/>
    </edge>
    <edge id=":antrim_96" function="internal">
        <lane id=":antrim_96_0" index="0" speed="8.00" length="28.29" shape="2265.00,3435.06 2266.42,3443.05 2266.02,3452.68 2264.04,3459.64 2260.74,3459.65"/>
    </edge>
    <edge id=":antrim_97" function="internal">
        <lane id=":antrim_97_0" index="0" speed="7.87" length="27.50" shape="2265.00,3435.06 2266.42,3442.87 2266.12,3452.28 2264.31,3459.09 2261.20,3459.07"/>
    </edge>
    <edge id=":antrim_98" function="internal">
        <lane id=":antrim_98_0" index="0" speed="10.00" length="80.28" shape="2265.00,3435.06 2253.22,3407.44 2249.03,3398.39 2252.41,3407.92 2263.38,3436.03"/>
    </edge>
    <edge id=":antrim_99" function="internal">
        <lane id=":antrim_99_0" index="0" speed="9.02" length="36.53" shape="2265.00,3435.06 2273.16,3442.83 2275.17,3449.53 2271.02,3455.15 2260.70,3459.70"/>
    </edge>
    <edge id=":antrim_100" function="internal">
        <lane id=":antrim_100_0" index="0" speed="10.00" length="0.78" shape="2257.70,3439.42 2257.85,3439.66 2257.92,3439.73 2257.91,3439.62 2257.81,3439.35"/>
    </edge>
    <edge id=":antrim_101" function="internal">
        <lane id=":antrim_101_0" index="0" speed="8.45" length="32.10" shape="2257.70,3439.42 2264.09,3449.01 2267.31,3451.56 2267.36,3447.06 2264.23,3435.52"/>
    </edge>
    <edge id=":antrim_102" function="internal">
        <lane id=":antrim_102_0" index="0" speed="10.00" length="47.99" shape="2257.70,3439.42 2269.29,3456.60 2277.49,3464.46 2282.29,3462.99 2283.70,3452.19"/>
    </edge>
    <edge id=":antrim_103" function="internal">
        <lane id=":antrim_103_0" index="0" speed="10.00" length="51.47" shape="2257.70,3439.42 2269.75,3456.85 2278.77,3464.57 2284.77,3462.58 2287.73,3450.87"/>
    </edge>
    <edge id=":antrim_104" function="internal">
        <lane id=":antrim_104_0" index="0" speed="10.00" length="50.73" shape="2257.70,3439.42 2262.41,3450.31 2267.90,3466.79 2271.62,3481.69 2271.01,3487.79"/>
    </edge>
    <edge id=":antrim_105" function="internal">
        <lane id=":antrim_105_0" index="0" speed="9.44" length="36.03" shape="2257.70,3439.42 2258.77,3447.87 2256.05,3458.75 2250.98,3467.44 2245.04,3469.29"/>
    </edge>
    <edge id=":antrim_106" function="internal">
        <lane id=":antrim_106_0" index="0" speed="7.89" length="27.57" shape="2257.70,3439.42 2260.27,3446.94 2261.38,3456.31 2260.60,3463.33 2257.51,3463.78"/>
    </edge>
    <edge id=":antrim_107" function="internal">
        <lane id=":antrim_107_0" index="0" speed="7.27" length="23.95" shape="2257.70,3439.42 2260.26,3446.09 2261.92,3454.42 2262.01,3460.58 2259.88,3460.76"/>
    </edge>
    <edge id=":antrim_108" function="internal">
        <lane id=":antrim_108_0" index="0" speed="7.06" length="22.75" shape="2257.70,3439.42 2260.26,3445.80 2262.13,3453.76 2262.53,3459.61 2260.70,3459.70"/>
    </edge>
    <edge id=":antrim_109" function="internal">
        <lane id=":antrim_109_0" index="0" speed="6.93" length="22.05" shape="2257.70,3439.42 2260.27,3445.63 2262.26,3453.36 2262.84,3459.03 2261.20,3459.07"/>
    </edge>
    <edge id=":antrim_110" function="internal">
        <lane id=":antrim_110_0" index="0" speed="8.00" length="29.89" shape="2257.70,3439.42 2266.05,3443.33 2269.34,3448.01 2267.57,3453.45 2260.74,3459.65"/>
    </edge>
    <edge id=":antrim_111" function="internal">
        <lane id=":antrim_111_0" index="0" speed="6.70" length="19.20" shape="2263.24,3456.46 2263.93,3456.74 2263.25,3453.98 2261.21,3448.19 2257.81,3439.35"/>
    </edge>
    <edge id=":antrim_112" function="internal">
        <lane id=":antrim_112_0" index="0" speed="8.89" length="34.36" shape="2263.24,3456.46 2268.11,3461.47 2269.90,3459.64 2268.60,3450.99 2264.23,3435.52"/>
    </edge>
    <edge id=":antrim_113" function="internal">
        <lane id=":antrim_113_0" index="0" speed="9.99" length="39.03" shape="2263.24,3456.46 2272.42,3466.57 2278.89,3469.23 2282.65,3464.44 2283.70,3452.19"/>
    </edge>
    <edge id=":antrim_114" function="internal">
        <lane id=":antrim_114_0" index="0" speed="10.00" length="42.30" shape="2263.24,3456.46 2272.84,3466.72 2280.13,3469.20 2285.09,3463.92 2287.73,3450.87"/>
    </edge>
    <edge id=":antrim_115" function="internal">
        <lane id=":antrim_115_0" index="0" speed="9.64" length="34.55" shape="2263.24,3456.46 2267.82,3464.55 2272.06,3475.33 2273.83,3484.51 2271.01,3487.79"/>
    </edge>
    <edge id=":antrim_116" function="internal">
        <lane id=":antrim_116_0" index="0" speed="7.92" length="25.91" shape="2263.24,3456.46 2263.22,3461.45 2258.29,3466.39 2251.29,3469.58 2245.04,3469.29"/>
    </edge>
    <edge id=":antrim_117" function="internal">
        <lane id=":antrim_117_0" index="0" speed="5.15" length="10.96" shape="2263.24,3456.46 2263.45,3458.95 2261.92,3461.85 2259.61,3463.89 2257.51,3463.78"/>
    </edge>
    <edge id=":antrim_118" function="internal">
        <lane id=":antrim_118_0" index="0" speed="4.12" length="6.45" shape="2263.24,3456.46 2263.35,3457.94 2262.42,3459.67 2261.06,3460.88 2259.88,3460.76"/>
    </edge>
    <edge id=":antrim_119" function="internal">
        <lane id=":antrim_119_0" index="0" speed="3.51" length="4.12" shape="2263.24,3456.46 2260.70,3459.70"/>
    </edge>
    <edge id=":antrim_120" function="internal">
        <lane id=":antrim_120_0" index="0" speed="3.49" length="4.05" shape="2263.24,3456.46 2260.74,3459.65"/>
    </edge>
    <edge id=":antrim_121" function="internal">
        <lane id=":antrim_121_0" index="0" speed="3.69" length="4.83" shape="2263.24,3456.46 2263.71,3457.88 2263.52,3458.79 2262.69,3459.18 2261.20,3459.07"/>
    </edge>
    <edge id=":antrim_122" function="internal">
        <lane id=":antrim_122_0" index="0" speed="6.23" length="15.99" shape="2265.92,3453.05 2263.52,3449.97 2261.37,3446.66 2259.47,3443.12 2257.81,3439.35"/>
    </edge>
    <edge id=":antrim_123" function="internal">
        <lane id=":antrim_123_0" index="0" speed="7.35" length="22.33" shape="2265.92,3453.05 2268.07,3454.60 2268.50,3452.20 2267.22,3445.84 2264.23,3435.52"/>
    </edge>
    <edge id=":antrim_124" function="internal">
        <lane id=":antrim_124_0" index="0" speed="8.96" length="30.25" shape="2265.92,3453.05 2273.86,3461.02 2279.46,3463.53 2282.74,3460.59 2283.70,3452.19"/>
    </edge>
    <edge id=":antrim_125" function="internal">
        <lane id=":antrim_125_0" index="0" speed="9.78" length="34.64" shape="2265.92,3453.05 2274.63,3461.55 2281.17,3464.03 2285.54,3460.47 2287.73,3450.87"/>
    </edge>
    <edge id=":antrim_126" function="internal">
        <lane id=":antrim_126_0" index="0" speed="9.68" length="35.76" shape="2263.91,3455.62 2268.67,3463.73 2272.89,3474.86 2274.39,3484.41 2271.01,3487.79"/>
    </edge>
    <edge id=":antrim_127" function="internal">
        <lane id=":antrim_127_0" index="0" speed="8.01" length="27.17" shape="2263.91,3455.62 2264.05,3460.76 2258.94,3466.03 2251.59,3469.51 2245.04,3469.29"/>
    </edge>
    <edge id=":antrim_128" function="internal">
        <lane id=":antrim_128_0" index="0" speed="4.99" length="10.37" shape="2263.91,3455.62 2257.51,3463.78"/>
    </edge>
    <edge id=":antrim_129" function="internal">
        <lane id=":antrim_129_0" index="0" speed="10.00" length="55.27" shape="2261.89,3458.19 2248.45,3442.57 2243.77,3437.61 2247.85,3443.32 2260.70,3459.70"/>
    </edge>
    <edge id=":antrim_130" function="internal">
        <lane id=":antrim_130_0" index="0" speed="10.00" length="51.00" shape="2261.89,3458.19 2249.48,3443.78 2245.16,3439.22 2248.91,3444.51 2260.74,3459.65"/>
    </edge>
    <edge id=":antrim_131" function="internal">
        <lane id=":antrim_131_0" index="0" speed="6.59" length="20.07" shape="2261.89,3458.19 2257.01,3452.56 2255.27,3450.83 2256.67,3453.00 2261.20,3459.07"/>
    </edge>
    <edge id=":antrim_132" function="internal">
        <lane id=":antrim_132_0" index="0" speed="3.68" length="4.77" shape="2261.89,3458.19 2262.35,3459.59 2262.17,3460.48 2261.34,3460.87 2259.88,3460.76"/>
    </edge>
    <edge id=":antrim_133" function="internal">
        <lane id=":antrim_133_0" index="0" speed="4.23" length="6.83" shape="2257.08,3464.33 2259.11,3465.86 2259.85,3466.28 2259.32,3465.59 2257.51,3463.78"/>