<?xml version="1.0" encoding="UTF-8"?>

<!-- generated on 2024-09-30 22:22:33 by Eclipse SUMO netconvert Version 1.18.0
<configuration xmlns:xsi="http://www.w3.org/2001/XMLSchema-instance" xsi:noNamespaceSchemaLocation="http://sumo.dlr.de/xsd/netconvertConfiguration.xsd">

    <input>
        <node-files value="nod.xml"/>
        <edge-files value="edge_xmls/05404.xml"/>
    </input>

    <output>
        <output-file value="networks/05404.net.xml"/>
    </output>

</configuration>
-->

<net version="1.16" junctionCornerDetail="5" limitTurnSpeed="5.50" xmlns:xsi="http://www.w3.org/2001/XMLSchema-instance" xsi:noNamespaceSchemaLocation="http://sumo.dlr.de/xsd/net_file.xsd">

    <location netOffset="-682.00,4368.00" convBoundary="0.00,0.00,2498.00,3881.00" origBoundary="682.00,-4368.00,3180.00,-487.00" projParameter="!"/>

    <edge id=":antrim_0" function="internal">
        <lane id=":antrim_0_0" index="0" speed="10.00" length="35.98" shape="2288.22,3460.00 2287.37,3473.38 2285.47,3483.38 2282.51,3490.00 2278.49,3493.22"/>
    </edge>
    <edge id=":antrim_1" function="internal">
        <lane id=":antrim_1_0" index="0" speed="10.00" length="36.01" shape="2288.22,3460.00 2287.33,3471.35 2284.69,3480.21 2279.55,3484.77 2271.19,3483.19"/>
    </edge>
    <edge id=":antrim_2" function="internal">
        <lane id=":antrim_2_0" index="0" speed="8.82" length="29.20" shape="2288.22,3460.00 2287.13,3469.31 2284.40,3477.10 2280.29,3480.78 2275.04,3477.77"/>
    </edge>
    <edge id=":antrim_3" function="internal">
        <lane id=":antrim_3_0" index="0" speed="5.53" length="12.88" shape="2288.22,3460.00 2286.92,3462.42 2284.09,3462.35 2281.14,3460.36 2279.45,3457.03"/>
    </edge>
    <edge id=":antrim_4" function="internal">
        <lane id=":antrim_4_0" index="0" speed="10.00" length="35.87" shape="2284.46,3459.55 2285.31,3473.11 2284.60,3483.24 2282.33,3489.95 2278.49,3493.22"/>
    </edge>
    <edge id=":antrim_5" function="internal">
        <lane id=":antrim_5_0" index="0" speed="10.00" length="34.76" shape="2284.46,3459.55 2284.94,3470.53 2283.45,3479.56 2279.14,3484.50 2271.19,3483.19"/>
    </edge>
    <edge id=":antrim_6" function="internal">
        <lane id=":antrim_6_0" index="0" speed="8.32" length="27.28" shape="2284.46,3459.55 2284.49,3468.43 2282.86,3476.25 2279.67,3480.28 2275.04,3477.77"/>
    </edge>
    <edge id=":antrim_7" function="internal">
        <lane id=":antrim_7_0" index="0" speed="4.50" length="8.19" shape="2284.46,3459.55 2282.26,3460.79 2280.69,3460.79 2279.76,3459.53 2279.45,3457.03"/>
    </edge>
    <edge id=":antrim_8" function="internal">
        <lane id=":antrim_8_0" index="0" speed="4.39" length="7.58" shape="2280.05,3456.94 2279.35,3454.18 2279.02,3453.28 2279.06,3454.23 2279.45,3457.03"/>
    </edge>
    <edge id=":antrim_9" function="internal">
        <lane id=":antrim_9_0" index="0" speed="10.00" length="38.28" shape="2280.05,3456.94 2282.89,3471.62 2283.58,3482.56 2282.12,3489.76 2278.49,3493.22"/>
    </edge>
    <edge id=":antrim_10" function="internal">
        <lane id=":antrim_10_0" index="0" speed="10.00" length="35.96" shape="2280.05,3456.94 2282.08,3468.35 2282.08,3478.32 2278.85,3484.16 2271.19,3483.19"/>
    </edge>
    <edge id=":antrim_11" function="internal">
        <lane id=":antrim_11_0" index="0" speed="8.28" length="28.52" shape="2280.05,3456.94 2281.46,3466.39 2281.35,3475.19 2279.33,3480.08 2275.04,3477.77"/>
    </edge>
    <edge id=":antrim_12" function="internal">
        <lane id=":antrim_12_0" index="0" speed="6.57" length="18.75" shape="2275.53,3458.12 2278.29,3464.42 2279.87,3466.34 2280.25,3463.87 2279.45,3457.03"/>
    </edge>
    <edge id=":antrim_13" function="internal">
        <lane id=":antrim_13_0" index="0" speed="10.00" length="35.79" shape="2275.53,3458.12 2277.89,3466.92 2279.60,3478.31 2280.03,3488.38 2278.49,3493.22"/>
    </edge>
    <edge id=":antrim_14" function="internal">
        <lane id=":antrim_14_0" index="0" speed="8.82" length="28.79" shape="2275.53,3458.12 2277.23,3465.91 2277.36,3475.06 2275.49,3482.02 2271.19,3483.19"/>
    </edge>
    <edge id=":antrim_15" function="internal">
        <lane id=":antrim_15_0" index="0" speed="7.75" length="26.17" shape="2275.53,3458.12 2278.10,3466.68 2279.34,3474.96 2278.55,3479.74 2275.04,3477.77"/>
    </edge>
    <edge id=":antrim_16" function="internal">
        <lane id=":antrim_16_0" index="0" speed="6.76" length="19.81" shape="2275.05,3458.32 2278.08,3464.90 2279.82,3466.87 2280.28,3464.25 2279.45,3457.03"/>
    </edge>
    <edge id=":antrim_17" function="internal">
        <lane id=":antrim_17_0" index="0" speed="10.00" length="35.64" shape="2275.05,3458.32 2277.54,3467.07 2279.42,3478.39 2279.98,3488.40 2278.49,3493.22"/>
    </edge>
    <edge id=":antrim_18" function="internal">
        <lane id=":antrim_18_0" index="0" speed="8.74" length="28.48" shape="2275.05,3458.32 2276.85,3466.02 2277.12,3475.10 2275.39,3482.01 2271.19,3483.19"/>
    </edge>
    <edge id=":antrim_19" function="internal">
        <lane id=":antrim_19_0" index="0" speed="7.09" length="21.71" shape="2275.05,3458.32 2276.66,3464.60 2277.49,3472.20 2277.09,3477.72 2275.04,3477.77"/>
    </edge>
    <edge id=":antrim_20" function="internal">
        <lane id=":antrim_20_0" index="0" speed="6.83" length="20.23" shape="2274.84,3458.41 2277.98,3465.09 2279.80,3467.09 2280.29,3464.40 2279.45,3457.03"/>
    </edge>
    <edge id=":antrim_21" function="internal">
        <lane id=":antrim_21_0" index="0" speed="10.00" length="37.43" shape="2274.84,3458.41 2280.06,3472.42 2282.41,3482.89 2281.88,3489.82 2278.49,3493.22"/>
    </edge>
    <edge id=":antrim_22" function="internal">
        <lane id=":antrim_22_0" index="0" speed="8.71" length="28.34" shape="2274.84,3458.41 2276.68,3466.06 2277.01,3475.11 2275.35,3482.01 2271.19,3483.19"/>
    </edge>
    <edge id=":antrim_23" function="internal">
        <lane id=":antrim_23_0" index="0" speed="8.00" length="28.27" shape="2274.84,3458.41 2282.15,3463.17 2284.62,3467.99 2282.25,3472.85 2275.04,3477.77"/>
    </edge>
    <edge id=":antrim_24" function="internal">
        <lane id=":antrim_24_0" index="0" speed="8.11" length="25.21" shape="2276.26,3476.79 2279.23,3478.39 2280.76,3475.62 2280.83,3468.50 2279.45,3457.03"/>
    </edge>
    <edge id=":antrim_25" function="internal">
        <lane id=":antrim_25_0" index="0" speed="8.33" length="20.82" shape="2276.26,3476.79 2281.15,3482.66 2283.15,3487.35 2282.27,3490.87 2278.49,3493.22"/>
    </edge>
    <edge id=":antrim_26" function="internal">
        <lane id=":antrim_26_0" index="0" speed="5.82" length="14.87" shape="2276.26,3476.79 2272.29,3472.89 2270.76,3471.75 2271.68,3473.38 2275.04,3477.77"/>
    </edge>
    <edge id=":antrim_27" function="internal">
        <lane id=":antrim_27_0" index="0" speed="5.48" length="11.92" shape="2276.26,3476.79 2277.39,3480.29 2276.92,3482.53 2274.85,3483.49 2271.19,3483.19"/>
    </edge>
    <edge id=":antrim_28" function="internal">
        <lane id=":antrim_28_0" index="0" speed="5.53" length="11.17" shape="2271.82,3481.93 2275.52,3482.99 2277.29,3482.65 2277.13,3480.91 2275.04,3477.77"/>
    </edge>
    <edge id=":antrim_29" function="internal">
        <lane id=":antrim_29_0" index="0" speed="9.92" length="31.18" shape="2271.82,3481.93 2276.87,3482.10 2279.82,3478.01 2280.68,3469.65 2279.45,3457.03"/>
    </edge>
    <edge id=":antrim_30" function="internal">
        <lane id=":antrim_30_0" index="0" speed="6.92" length="17.35" shape="2271.82,3481.93 2276.71,3484.45 2280.30,3487.67 2281.32,3490.84 2278.49,3493.22"/>
    </edge>
    <edge id=":antrim_31" function="internal">
        <lane id=":antrim_31_0" index="0" speed="5.41" length="12.51" shape="2271.82,3481.93 2267.41,3480.36 2265.83,3480.04 2267.09,3480.98 2271.19,3483.19"/>
    </edge>
    <edge id=":athlone_0" function="internal">
        <lane id=":athlone_0_0" index="0" speed="10.00" length="61.76" shape="1257.44,1972.12 1259.32,1961.49 1264.90,1942.46 1271.10,1923.47 1274.83,1912.96"/>
    </edge>
    <edge id=":athlone_1" function="internal">
        <lane id=":athlone_1_0" index="0" speed="10.00" length="61.40" shape="1257.44,1972.12 1257.30,1962.88 1261.17,1950.57 1269.05,1935.18 1280.95,1916.73"/>
    </edge>
    <edge id=":athlone_2" function="internal">
        <lane id=":athlone_2_0" index="0" speed="8.71" length="24.18" shape="1257.44,1972.12 1257.55,1966.30 1261.31,1963.57 1267.49,1963.28 1274.86,1964.79"/>
    </edge>
    <edge id=":athlone_3" function="internal">
        <lane id=":athlone_3_0" index="0" speed="6.24" length="13.66" shape="1257.44,1972.12 1258.24,1969.47 1261.28,1967.52 1265.14,1966.71 1268.39,1967.45"/>
    </edge>
    <edge id=":athlone_4" function="internal">
        <lane id=":athlone_4_0" index="0" speed="4.75" length="8.68" shape="1257.44,1972.12 1257.71,1969.46 1258.67,1968.10 1260.33,1968.06 1262.69,1969.33"/>
    </edge>
    <edge id=":athlone_5" function="internal">
        <lane id=":athlone_5_0" index="0" speed="5.69" length="12.54" shape="1275.21,1960.02 1270.89,1960.90 1269.38,1961.99 1270.71,1963.28 1274.86,1964.79"/>
    </edge>
    <edge id=":athlone_6" function="internal">
        <lane id=":athlone_6_0" index="0" speed="6.60" length="15.34" shape="1275.21,1960.02 1269.22,1961.24 1266.09,1962.88 1265.81,1964.95 1268.39,1967.45"/>
    </edge>
    <edge id=":athlone_7" function="internal">
        <lane id=":athlone_7_0" index="0" speed="8.03" length="18.56" shape="1275.21,1960.02 1268.19,1961.44 1263.77,1963.47 1261.93,1966.10 1262.69,1969.33"/>
    </edge>
    <edge id=":athlone_8" function="internal">
        <lane id=":athlone_8_0" index="0" speed="10.00" length="55.56" shape="1275.21,1960.02 1266.04,1957.08 1264.35,1946.42 1268.00,1930.80 1274.83,1912.96"/>
    </edge>
    <edge id=":athlone_9" function="internal">
        <lane id=":athlone_9_0" index="0" speed="10.00" length="52.07" shape="1275.21,1960.02 1266.69,1957.33 1267.30,1947.48 1273.96,1933.53 1283.58,1918.55"/>
    </edge>
    <edge id=":athlone_10" function="internal">
        <lane id=":athlone_10_0" index="0" speed="10.00" length="51.22" shape="1286.21,1920.38 1275.14,1938.05 1269.56,1951.33 1269.47,1960.25 1274.86,1964.79"/>
    </edge>
    <edge id=":athlone_11" function="internal">
        <lane id=":athlone_11_0" index="0" speed="10.00" length="52.92" shape="1286.21,1920.38 1274.61,1938.40 1267.77,1952.25 1265.70,1961.93 1268.39,1967.45"/>
    </edge>
    <edge id=":athlone_12" function="internal">
        <lane id=":athlone_12_0" index="0" speed="10.00" length="55.34" shape="1286.21,1920.38 1274.12,1938.70 1266.17,1952.97 1262.36,1963.18 1262.69,1969.33"/>
    </edge>
    <edge id=":athlone_13" function="internal">
        <lane id=":athlone_13_0" index="0" speed="6.59" length="18.99" shape="1286.21,1920.38 1282.19,1922.81 1277.79,1921.60 1274.75,1917.92 1274.83,1912.96"/>
    </edge>
    <edge id=":athlone_14" function="internal">
        <lane id=":athlone_14_0" index="0" speed="3.65" length="4.67" shape="1286.21,1920.38 1284.87,1920.91 1283.98,1920.78 1283.55,1920.00 1283.58,1918.55"/>
    </edge>
    <edge id=":athlone_15" function="internal">
        <lane id=":athlone_15_0" index="0" speed="10.00" length="57.62" shape="1247.46,1963.54 1253.34,1955.33 1262.08,1939.13 1270.35,1922.49 1274.83,1912.96"/>
    </edge>
    <edge id=":athlone_16" function="internal">
        <lane id=":athlone_16_0" index="0" speed="10.00" length="57.69" shape="1247.46,1963.54 1252.96,1956.72 1261.35,1942.99 1270.52,1927.38 1278.33,1914.90"/>
        <lane id=":athlone_16_1" index="1" speed="10.00" length="57.69" shape="1247.46,1963.54 1253.37,1957.00 1262.67,1943.90 1272.73,1928.92 1280.95,1916.73"/>
        <lane id=":athlone_16_2" index="2" speed="10.00" length="57.69" shape="1247.46,1963.54 1253.78,1957.29 1263.98,1944.82 1274.95,1930.46 1283.58,1918.55"/>
    </edge>
    <edge id=":athlone_19" function="internal">
        <lane id=":athlone_19_0" index="0" speed="10.00" length="27.64" shape="1247.46,1963.54 1252.95,1962.58 1261.03,1962.79 1269.18,1963.69 1274.86,1964.79"/>
    </edge>
    <edge id=":athlone_20" function="internal">
        <lane id=":athlone_20_0" index="0" speed="10.00" length="22.31" shape="1247.46,1963.54 1252.01,1962.14 1257.02,1962.32 1262.48,1964.09 1268.39,1967.45"/>
    </edge>
    <edge id=":athlone_21" function="internal">
        <lane id=":athlone_21_0" index="0" speed="9.21" length="18.32" shape="1247.46,1963.54 1251.85,1962.16 1255.85,1962.66 1259.46,1965.05 1262.69,1969.33"/>
    </edge>
    <edge id=":athlone_22" function="internal">
        <lane id=":athlone_22_0" index="0" speed="10.00" length="61.01" shape="1251.16,1969.19 1274.83,1912.96"/>
    </edge>
    <edge id=":athlone_23" function="internal">
        <lane id=":athlone_23_0" index="0" speed="10.00" length="60.37" shape="1251.16,1969.19 1255.36,1960.76 1263.51,1945.83 1272.94,1929.46 1280.95,1916.73"/>
    </edge>
    <edge id=":athlone_24" function="internal">
        <lane id=":athlone_24_0" index="0" speed="10.00" length="26.41" shape="1251.16,1969.19 1254.09,1965.12 1259.02,1963.02 1265.94,1962.91 1274.86,1964.79"/>
    </edge>
    <edge id=":athlone_25" function="internal">
        <lane id=":athlone_25_0" index="0" speed="8.51" length="19.01" shape="1251.16,1969.19 1254.04,1966.22 1258.74,1965.11 1263.97,1965.61 1268.39,1967.45"/>
    </edge>
    <edge id=":athlone_26" function="internal">
        <lane id=":athlone_26_0" index="0" speed="6.37" length="13.10" shape="1251.16,1969.19 1253.27,1967.23 1256.71,1966.67 1260.27,1967.40 1262.69,1969.33"/>
    </edge>
    <edge id=":belfast_0" function="internal">
        <lane id=":belfast_0_0" index="0" speed="10.00" length="55.34" shape="2498.30,3317.36 2497.79,3334.80 2494.26,3347.98 2486.41,3355.37 2472.95,3355.41"/>
    </edge>
    <edge id=":belfast_1" function="internal">
        <lane id=":belfast_1_0" index="0" speed="10.00" length="44.28" shape="2498.30,3317.36 2495.74,3326.95 2489.24,3339.13 2481.15,3349.01 2473.85,3351.69"/>
    </edge>
    <edge id=":belfast_2" function="internal">
        <lane id=":belfast_2_0" index="0" speed="10.00" length="55.07" shape="2498.30,3317.36 2491.47,3323.90 2475.61,3329.27 2458.28,3332.11 2447.02,3331.06"/>
    </edge>
    <edge id=":belfast_3" function="internal">
        <lane id=":belfast_3_0" index="0" speed="10.00" length="50.51" shape="2498.30,3317.36 2491.96,3323.08 2477.22,3326.60 2461.11,3327.43 2450.68,3325.07"/>
    </edge>
    <edge id=":belfast_4" function="internal">
        <lane id=":belfast_4_0" index="0" speed="10.00" length="43.06" shape="2498.30,3317.36 2493.25,3323.51 2481.38,3327.94 2468.23,3329.59 2459.31,3327.41"/>
    </edge>
    <edge id=":belfast_5" function="internal">
        <lane id=":belfast_5_0" index="0" speed="7.67" length="25.01" shape="2498.30,3317.36 2496.93,3324.31 2493.51,3331.93 2489.53,3336.91 2486.49,3335.92"/>
    </edge>
    <edge id=":belfast_6" function="internal">
        <lane id=":belfast_6_0" index="0" speed="7.45" length="23.86" shape="2498.30,3317.36 2497.04,3324.08 2493.90,3331.53 2490.28,3336.42 2487.58,3335.47"/>
    </edge>
    <edge id=":belfast_7" function="internal">
        <lane id=":belfast_7_0" index="0" speed="10.00" length="45.53" shape="2494.78,3317.62 2492.95,3327.53 2487.32,3340.59 2479.97,3351.61 2472.95,3355.41"/>
    </edge>
    <edge id=":belfast_8" function="internal">
        <lane id=":belfast_8_0" index="0" speed="10.00" length="42.33" shape="2494.78,3317.62 2493.08,3327.15 2487.77,3339.24 2480.72,3349.05 2473.85,3351.69"/>
    </edge>
    <edge id=":belfast_9" function="internal">
        <lane id=":belfast_9_0" index="0" speed="10.00" length="51.81" shape="2494.78,3317.62 2488.81,3324.09 2474.13,3329.38 2457.83,3332.14 2447.02,3331.06"/>
    </edge>
    <edge id=":belfast_10" function="internal">
        <lane id=":belfast_10_0" index="0" speed="10.00" length="58.80" shape="2494.78,3317.62 2491.83,3331.35 2481.13,3336.34 2466.23,3333.83 2450.68,3325.07"/>
    </edge>
    <edge id=":belfast_11" function="internal">
        <lane id=":belfast_11_0" index="0" speed="10.00" length="39.91" shape="2494.78,3317.62 2490.59,3323.71 2479.90,3328.05 2467.78,3329.63 2459.31,3327.41"/>
    </edge>
    <edge id=":belfast_12" function="internal">
        <lane id=":belfast_12_0" index="0" speed="7.23" length="22.71" shape="2494.78,3317.62 2494.16,3324.15 2491.86,3331.59 2488.95,3336.61 2486.49,3335.92"/>
    </edge>
    <edge id=":belfast_13" function="internal">
        <lane id=":belfast_13_0" index="0" speed="7.02" length="21.66" shape="2494.78,3317.62 2494.26,3323.95 2492.26,3331.20 2489.72,3336.13 2487.58,3335.47"/>
    </edge>
    <edge id=":belfast_14" function="internal">
        <lane id=":belfast_14_0" index="0" speed="9.53" length="38.28" shape="2461.73,3324.71 2475.33,3336.41 2483.98,3342.18 2487.70,3342.02 2486.49,3335.92"/>
    </edge>
    <edge id=":belfast_15" function="internal">
        <lane id=":belfast_15_0" index="0" speed="9.75" length="39.37" shape="2461.73,3324.71 2475.58,3336.55 2484.50,3342.29 2488.50,3341.93 2487.58,3335.47"/>
    </edge>
    <edge id=":belfast_16" function="internal">
        <lane id=":belfast_16_0" index="0" speed="9.29" length="35.46" shape="2461.73,3324.71 2467.47,3332.34 2473.04,3343.11 2475.76,3352.36 2472.95,3355.41"/>
    </edge>
    <edge id=":belfast_17" function="internal">
        <lane id=":belfast_17_0" index="0" speed="9.48" length="39.35" shape="2461.73,3324.71 2470.88,3334.49 2478.03,3344.72 2480.06,3351.69 2473.85,3351.69"/>
    </edge>
    <edge id=":belfast_18" function="internal">
        <lane id=":belfast_18_0" index="0" speed="7.05" length="22.12" shape="2461.73,3324.71 2463.28,3328.88 2459.70,3331.87 2453.46,3332.86 2447.02,3331.06"/>
    </edge>
    <edge id=":belfast_19" function="internal">
        <lane id=":belfast_19_0" index="0" speed="5.11" length="11.06" shape="2461.73,3324.71 2450.68,3325.07"/>
    </edge>
    <edge id=":belfast_20" function="internal">
        <lane id=":belfast_20_0" index="0" speed="3.82" length="5.30" shape="2461.73,3324.71 2462.14,3326.29 2461.87,3327.27 2460.93,3327.64 2459.31,3327.41"/>
    </edge>
    <edge id=":belfast_21" function="internal">
        <lane id=":belfast_21_0" index="0" speed="3.85" length="5.23" shape="2450.36,3325.60 2452.04,3326.58 2452.65,3326.81 2452.20,3326.31 2450.68,3325.07"/>
    </edge>
    <edge id=":belfast_22" function="internal">
        <lane id=":belfast_22_0" index="0" speed="6.93" length="21.34" shape="2450.36,3325.60 2458.88,3330.53 2463.21,3332.47 2463.35,3331.43 2459.31,3327.41"/>
    </edge>
    <edge id=":belfast_23" function="internal">
        <lane id=":belfast_23_0" index="0" speed="10.00" length="45.02" shape="2450.36,3325.60 2468.49,3335.84 2480.56,3340.97 2486.56,3341.00 2486.49,3335.92"/>
    </edge>
    <edge id=":belfast_24" function="internal">
        <lane id=":belfast_24_0" index="0" speed="10.00" length="46.18" shape="2450.36,3325.60 2468.79,3335.95 2481.13,3341.05 2487.40,3340.89 2487.58,3335.47"/>
    </edge>
    <edge id=":belfast_25" function="internal">
        <lane id=":belfast_25_0" index="0" speed="10.00" length="48.12" shape="2448.69,3328.33 2462.53,3337.66 2474.65,3347.62 2479.86,3354.71 2472.95,3355.41"/>
    </edge>
    <edge id=":belfast_26" function="internal">
        <lane id=":belfast_26_0" index="0" speed="8.71" length="35.47" shape="2448.69,3328.33 2456.98,3334.40 2467.20,3343.02 2474.45,3350.13 2473.85,3351.69"/>
    </edge>
    <edge id=":belfast_27" function="internal">
        <lane id=":belfast_27_0" index="0" speed="3.65" length="4.67" shape="2448.69,3328.33 2449.29,3329.64 2449.22,3330.53 2448.46,3331.01 2447.02,3331.06"/>
    </edge>
    <edge id=":belfast_28" function="internal">
        <lane id=":belfast_28_0" index="0" speed="7.59" length="20.34" shape="2486.98,3364.62 2488.67,3362.54 2486.89,3360.31 2481.65,3357.93 2472.95,3355.41"/>
    </edge>
    <edge id=":belfast_29" function="internal">
        <lane id=":belfast_29_0" index="0" speed="8.15" length="22.05" shape="2486.98,3364.62 2488.95,3362.17 2487.42,3359.20 2482.38,3355.71 2473.85,3351.69"/>
    </edge>
    <edge id=":belfast_30" function="internal">
        <lane id=":belfast_30_0" index="0" speed="10.00" length="54.25" shape="2486.98,3364.62 2487.44,3360.78 2480.94,3353.91 2467.46,3344.00 2447.02,3331.06"/>
    </edge>
    <edge id=":belfast_31" function="internal">
        <lane id=":belfast_31_0" index="0" speed="10.00" length="55.77" shape="2486.98,3364.62 2487.78,3360.34 2482.00,3352.33 2469.63,3340.57 2450.68,3325.07"/>
    </edge>
    <edge id=":belfast_32" function="internal">
        <lane id=":belfast_32_0" index="0" speed="10.00" length="48.69" shape="2486.98,3364.62 2488.37,3360.46 2484.22,3352.87 2474.54,3341.85 2459.31,3327.41"/>
    </edge>
    <edge id=":belfast_33" function="internal">
        <lane id=":belfast_33_0" index="0" speed="10.00" length="30.75" shape="2486.98,3364.62 2490.33,3360.84 2491.37,3354.79 2490.09,3346.49 2486.49,3335.92"/>
    </edge>
    <edge id=":belfast_34" function="internal">
        <lane id=":belfast_34_0" index="0" speed="10.00" length="31.09" shape="2486.98,3364.62 2490.42,3360.80 2491.67,3354.67 2490.72,3346.23 2487.58,3335.47"/>
    </edge>
    <edge id=":belfast_35" function="internal">
        <lane id=":belfast_35_0" index="0" speed="9.78" length="31.18" shape="2490.94,3334.12 2490.54,3341.30 2486.25,3348.73 2479.80,3354.17 2472.95,3355.41"/>
    </edge>
    <edge id=":belfast_36" function="internal">
        <lane id=":belfast_36_0" index="0" speed="8.95" length="27.92" shape="2490.94,3334.12 2490.44,3340.57 2486.21,3346.98 2480.07,3351.36 2473.85,3351.69"/>
    </edge>
    <edge id=":belfast_37" function="internal">
        <lane id=":belfast_37_0" index="0" speed="10.00" length="46.11" shape="2490.94,3334.12 2486.35,3337.84 2472.90,3337.47 2457.49,3334.66 2447.02,3331.06"/>
    </edge>
    <edge id=":belfast_38" function="internal">
        <lane id=":belfast_38_0" index="0" speed="10.00" length="43.36" shape="2490.94,3334.12 2486.84,3337.03 2474.51,3334.81 2460.33,3329.98 2450.68,3325.07"/>
    </edge>
    <edge id=":belfast_39" function="internal">
        <lane id=":belfast_39_0" index="0" speed="9.29" length="35.25" shape="2490.94,3334.12 2488.13,3337.46 2478.67,3336.15 2467.44,3332.15 2459.31,3327.41"/>
    </edge>
    <edge id=":belfast_40" function="internal">
        <lane id=":belfast_40_0" index="0" speed="3.94" length="5.69" shape="2490.94,3334.12 2490.55,3335.25 2489.13,3336.14 2487.51,3336.47 2486.49,3335.92"/>
    </edge>
    <edge id=":belfast_41" function="internal">
        <lane id=":belfast_41_0" index="0" speed="3.82" length="5.29" shape="2490.94,3334.12 2490.61,3335.72 2489.94,3336.48 2488.93,3336.40 2487.58,3335.47"/>
    </edge>
    <edge id=":belfast_42" function="internal">
        <lane id=":belfast_42_0" index="0" speed="9.46" length="30.00" shape="2489.49,3334.71 2489.51,3341.69 2485.68,3348.93 2479.62,3354.23 2472.95,3355.41"/>
    </edge>
    <edge id=":belfast_43" function="internal">
        <lane id=":belfast_43_0" index="0" speed="8.60" length="26.40" shape="2489.49,3334.71 2489.26,3340.78 2485.42,3346.98 2479.70,3351.29 2473.85,3351.69"/>
    </edge>
    <edge id=":belfast_44" function="internal">
        <lane id=":belfast_44_0" index="0" speed="10.00" length="44.72" shape="2489.49,3334.71 2485.33,3338.26 2472.36,3337.70 2457.33,3334.73 2447.02,3331.06"/>
    </edge>
    <edge id=":belfast_45" function="internal">
        <lane id=":belfast_45_0" index="0" speed="10.00" length="42.06" shape="2489.49,3334.71 2485.82,3337.45 2473.96,3335.03 2460.17,3330.05 2450.68,3325.07"/>
    </edge>
    <edge id=":belfast_46" function="internal">
        <lane id=":belfast_46_0" index="0" speed="9.03" length="34.00" shape="2489.49,3334.71 2487.11,3337.88 2478.13,3336.37 2467.28,3332.21 2459.31,3327.41"/>
    </edge>
    <edge id=":belfast_47" function="internal">
        <lane id=":belfast_47_0" index="0" speed="9.85" length="47.79" shape="2489.49,3334.71 2482.66,3318.17 2480.06,3312.78 2481.70,3318.55 2487.58,3335.47"/>
    </edge>
    <edge id=":belfast_48" function="internal">
        <lane id=":belfast_48_0" index="0" speed="3.66" length="4.72" shape="2489.49,3334.71 2489.19,3336.13 2488.60,3336.81 2487.69,3336.74 2486.49,3335.92"/>
    </edge>
    <edge id=":bray_0" function="internal">
        <lane id=":bray_0_0" index="0" speed="5.57" length="13.13" shape="2442.94,1658.65 2436.60,1657.26 2433.01,1656.65 2432.18,1656.84 2434.10,1657.81"/>
    </edge>
    <edge id=":bray_1" function="internal">
        <lane id=":bray_1_0" index="0" speed="10.00" length="21.97" shape="2442.94,1658.65 2445.00,1660.34 2446.55,1664.33 2447.61,1670.64 2448.16,1679.25"/>
    </edge>
    <edge id=":bray_2" function="internal">
        <lane id=":bray_2_0" index="0" speed="9.81" length="21.33" shape="2442.94,1658.65 2444.86,1660.34 2445.69,1664.29 2445.44,1670.48 2444.09,1678.92"/>
    </edge>
    <edge id=":bray_3" function="internal">
        <lane id=":bray_3_0" index="0" speed="10.00" length="23.16" shape="2442.94,1658.65 2446.22,1660.65 2448.00,1664.80 2448.28,1671.08 2447.06,1679.50"/>
    </edge>
    <edge id=":bray_4" function="internal">
        <lane id=":bray_4_0" index="0" speed="8.09" length="21.77" shape="2442.94,1658.65 2444.71,1660.72 2442.63,1664.55 2437.97,1669.43 2431.98,1674.64"/>
    </edge>
    <edge id=":bray_5" function="internal">
        <lane id=":bray_5_0" index="0" speed="3.86" length="5.28" shape="2442.94,1658.65 2444.05,1659.84 2444.28,1660.83 2443.63,1661.60 2442.10,1662.17"/>
    </edge>
    <edge id=":bray_6" function="internal">
        <lane id=":bray_6_0" index="0" speed="6.61" length="17.29" shape="2425.51,1666.79 2431.64,1664.64 2436.45,1663.15 2439.94,1662.33 2442.10,1662.17"/>
    </edge>
    <edge id=":bray_7" function="internal">
        <lane id=":bray_7_0" index="0" speed="6.85" length="16.51" shape="2425.51,1666.79 2432.08,1664.02 2435.70,1661.60 2436.38,1659.53 2434.10,1657.81"/>
    </edge>
    <edge id=":bray_8" function="internal">
        <lane id=":bray_8_0" index="0" speed="10.00" length="32.07" shape="2425.51,1666.79 2434.68,1664.64 2441.73,1665.79 2446.33,1670.55 2448.16,1679.25"/>
    </edge>
    <edge id=":bray_9" function="internal">
        <lane id=":bray_9_0" index="0" speed="8.86" length="24.96" shape="2425.51,1666.79 2431.55,1666.59 2437.94,1669.18 2442.77,1673.60 2444.09,1678.92"/>
    </edge>
    <edge id=":bray_10" function="internal">
        <lane id=":bray_10_0" index="0" speed="8.81" length="24.80" shape="2425.51,1666.79 2431.51,1666.61 2437.86,1669.19 2442.65,1673.61 2443.92,1678.88"/>
    </edge>
    <edge id=":bray_11" function="internal">
        <lane id=":bray_11_0" index="0" speed="6.05" length="14.85" shape="2425.51,1666.79 2430.07,1666.33 2432.67,1667.48 2433.30,1670.25 2431.98,1674.64"/>
    </edge>
    <edge id=":bray_12" function="internal">
        <lane id=":bray_12_0" index="0" speed="5.71" length="12.68" shape="2435.68,1677.62 2437.46,1673.51 2437.43,1671.65 2435.61,1672.02 2431.98,1674.64"/>
    </edge>
    <edge id=":bray_13" function="internal">
        <lane id=":bray_13_0" index="0" speed="7.75" length="16.90" shape="2435.68,1677.62 2439.02,1670.92 2441.21,1666.11 2442.23,1663.19 2442.10,1662.17"/>
    </edge>
    <edge id=":bray_14" function="internal">
        <lane id=":bray_14_0" index="0" speed="9.68" length="22.58" shape="2435.68,1677.62 2438.62,1670.45 2439.34,1664.76 2437.83,1660.55 2434.10,1657.81"/>
    </edge>
    <edge id=":bray_15" function="internal">
        <lane id=":bray_15_0" index="0" speed="6.64" length="17.14" shape="2435.68,1677.62 2438.95,1674.27 2443.04,1673.48 2446.57,1675.17 2448.16,1679.25"/>
    </edge>
    <edge id=":bray_16" function="internal">
        <lane id=":bray_16_0" index="0" speed="5.00" length="9.79" shape="2435.68,1677.62 2437.58,1676.39 2440.49,1676.30 2443.05,1677.19 2443.92,1678.88"/>
    </edge>
    <edge id=":bray_17" function="internal">
        <lane id=":bray_17_0" index="0" speed="5.54" length="12.43" shape="2435.68,1677.62 2438.27,1674.79 2440.53,1674.06 2442.48,1675.44 2444.09,1678.92"/>
    </edge>
    <edge id=":bray_18" function="internal">
        <lane id=":bray_18_0" index="0" speed="6.82" length="16.88" shape="2440.79,1678.26 2441.26,1673.11 2439.95,1670.79 2436.85,1671.30 2431.98,1674.64"/>
    </edge>
    <edge id=":bray_19" function="internal">
        <lane id=":bray_19_0" index="0" speed="8.31" length="16.45" shape="2440.79,1678.26 2442.10,1671.30 2442.76,1666.30 2442.76,1663.26 2442.10,1662.17"/>
    </edge>
    <edge id=":bray_20" function="internal">
        <lane id=":bray_20_0" index="0" speed="10.00" length="23.45" shape="2440.79,1678.26 2441.63,1670.87 2440.80,1665.00 2438.29,1660.65 2434.10,1657.81"/>
    </edge>
    <edge id=":bray_21" function="internal">
        <lane id=":bray_21_0" index="0" speed="5.10" length="10.38" shape="2440.79,1678.26 2442.27,1676.13 2444.74,1675.69 2447.07,1676.78 2448.16,1679.25"/>
    </edge>
    <edge id=":bray_22" function="internal">
        <lane id=":bray_22_0" index="0" speed="3.30" length="3.37" shape="2440.79,1678.26 2444.09,1678.92"/>
    </edge>
    <edge id=":bray_23" function="internal">
        <lane id=":bray_23_0" index="0" speed="3.65" length="4.67" shape="2440.79,1678.26 2441.80,1677.24 2442.67,1677.00 2443.37,1677.55 2443.92,1678.88"/>
    </edge>
    <edge id=":carlow_0" function="internal">
        <lane id=":carlow_0_0" index="0" speed="10.00" length="21.04" shape="1890.11,1140.49 1888.91,1144.87 1888.83,1150.67 1889.46,1156.57 1890.35,1161.26"/>
    </edge>
    <edge id=":carlow_1" function="internal">
        <lane id=":carlow_1_0" index="0" speed="10.00" length="21.21" shape="1890.11,1140.49 1888.82,1144.90 1888.54,1150.75 1888.90,1156.72 1889.57,1161.46"/>
    </edge>
    <edge id=":carlow_2" function="internal">