<?xml version="1.0" encoding="UTF-8"?>

<!-- generated on 2025-02-19 12:39:10 by Eclipse SUMO netconvert Version 1.18.0
<configuration xmlns:xsi="http://www.w3.org/2001/XMLSchema-instance" xsi:noNamespaceSchemaLocation="http://sumo.dlr.de/xsd/netconvertConfiguration.xsd">

    <input>
        <node-files value="nod.xml"/>
        <edge-files value="edge_xmls/06790.xml"/>
    </input>

    <output>
        <output-file value="networks/06790.net.xml"/>
    </output>

</configuration>
-->

<net version="1.16" junctionCornerDetail="5" limitTurnSpeed="5.50" xmlns:xsi="http://www.w3.org/2001/XMLSchema-instance" xsi:noNamespaceSchemaLocation="http://sumo.dlr.de/xsd/net_file.xsd">

    <location netOffset="-682.00,4368.00" convBoundary="0.00,0.00,2498.00,3881.00" origBoundary="682.00,-4368.00,3180.00,-487.00" projParameter="!"/>

    <edge id=":antrim_0" function="internal">
        <lane id=":antrim_0_0" index="0" speed="10.00" length="48.01" shape="2290.42,3456.81 2287.68,3470.72 2281.95,3479.74 2272.79,3483.29 2259.71,3480.77"/>
    </edge>
    <edge id=":antrim_1" function="internal">
        <lane id=":antrim_1_0" index="0" speed="9.23" length="30.67" shape="2290.42,3456.81 2287.08,3463.22 2280.04,3468.19 2272.07,3470.24 2265.92,3467.86"/>
    </edge>
    <edge id=":antrim_2" function="internal">
        <lane id=":antrim_2_0" index="0" speed="9.01" length="29.65" shape="2290.42,3456.81 2287.15,3463.01 2280.29,3467.76 2272.57,3469.63 2266.71,3467.19"/>
    </edge>
    <edge id=":antrim_3" function="internal">
        <lane id=":antrim_3_0" index="0" speed="8.89" length="29.09" shape="2290.42,3456.81 2287.19,3462.87 2280.42,3467.51 2272.82,3469.30 2267.12,3466.84"/>
    </edge>
    <edge id=":antrim_4" function="internal">
        <lane id=":antrim_4_0" index="0" speed="7.30" length="21.29" shape="2290.42,3456.81 2287.79,3460.97 2282.33,3463.77 2276.53,3464.38 2272.86,3461.96"/>
    </edge>
    <edge id=":antrim_5" function="internal">
        <lane id=":antrim_5_0" index="0" speed="7.81" length="24.70" shape="2290.42,3456.81 2287.88,3463.12 2282.84,3466.55 2277.25,3466.37 2273.03,3461.82"/>
    </edge>
    <edge id=":antrim_6" function="internal">
        <lane id=":antrim_6_0" index="0" speed="6.90" length="20.13" shape="2290.42,3456.81 2288.59,3462.83 2285.12,3467.52 2281.42,3469.17 2278.93,3466.10"/>
    </edge>
    <edge id=":antrim_7" function="internal">
        <lane id=":antrim_7_0" index="0" speed="6.03" length="15.98" shape="2290.42,3456.81 2291.73,3461.56 2290.97,3464.52 2288.15,3465.69 2283.26,3465.07"/>
    </edge>
    <edge id=":antrim_8" function="internal">
        <lane id=":antrim_8_0" index="0" speed="4.11" length="6.32" shape="2283.91,3464.92 2283.51,3462.61 2283.27,3461.87 2283.18,3462.69 2283.26,3465.07"/>
    </edge>
    <edge id=":antrim_9" function="internal">
        <lane id=":antrim_9_0" index="0" speed="10.00" length="36.89" shape="2283.91,3464.92 2283.27,3474.89 2278.36,3480.93 2270.18,3482.93 2259.71,3480.77"/>
    </edge>
    <edge id=":antrim_10" function="internal">
        <lane id=":antrim_10_0" index="0" speed="7.36" length="21.08" shape="2283.91,3464.92 2282.04,3468.56 2276.74,3470.38 2270.52,3470.20 2265.92,3467.86"/>
    </edge>
    <edge id=":antrim_11" function="internal">
        <lane id=":antrim_11_0" index="0" speed="7.15" length="20.09" shape="2283.91,3464.92 2282.09,3468.32 2276.98,3469.90 2271.03,3469.55 2266.71,3467.19"/>
    </edge>
    <edge id=":antrim_12" function="internal">
        <lane id=":antrim_12_0" index="0" speed="7.04" length="19.58" shape="2283.91,3464.92 2282.12,3468.20 2277.11,3469.65 2271.30,3469.21 2267.12,3466.84"/>
    </edge>
    <edge id=":antrim_13" function="internal">
        <lane id=":antrim_13_0" index="0" speed="5.66" length="13.26" shape="2283.91,3464.92 2282.63,3466.54 2279.16,3466.17 2275.30,3464.44 2272.86,3461.96"/>
    </edge>
    <edge id=":antrim_14" function="internal">
        <lane id=":antrim_14_0" index="0" speed="5.63" length="13.11" shape="2283.91,3464.92 2282.65,3466.49 2279.22,3466.07 2275.42,3464.30 2273.03,3461.82"/>
    </edge>
    <edge id=":antrim_15" function="internal">
        <lane id=":antrim_15_0" index="0" speed="4.37" length="7.47" shape="2283.91,3464.92 2283.10,3467.08 2282.01,3468.00 2280.61,3467.67 2278.93,3466.10"/>
    </edge>
    <edge id=":antrim_16" function="internal">
        <lane id=":antrim_16_0" index="0" speed="4.60" length="8.35" shape="2271.91,3462.77 2273.55,3465.32 2274.26,3466.03 2274.03,3464.91 2272.86,3461.96"/>
    </edge>
    <edge id=":antrim_17" function="internal">
        <lane id=":antrim_17_0" index="0" speed="4.83" length="9.38" shape="2271.91,3462.77 2273.75,3465.63 2274.55,3466.42 2274.31,3465.15 2273.03,3461.82"/>
    </edge>
    <edge id=":antrim_18" function="internal">
        <lane id=":antrim_18_0" index="0" speed="6.53" length="17.81" shape="2271.91,3462.77 2276.18,3469.27 2278.77,3471.99 2279.68,3470.93 2278.93,3466.10"/>
    </edge>
    <edge id=":antrim_19" function="internal">
        <lane id=":antrim_19_0" index="0" speed="5.03" length="9.04" shape="2271.91,3462.77 2274.19,3466.24 2275.78,3468.03 2276.69,3468.14 2276.92,3466.57"/>
    </edge>
    <edge id=":antrim_20" function="internal">
        <lane id=":antrim_20_0" index="0" speed="8.16" length="25.05" shape="2271.91,3462.77 2272.55,3468.56 2269.77,3475.06 2265.01,3479.91 2259.71,3480.77"/>
    </edge>
    <edge id=":antrim_21" function="internal">
        <lane id=":antrim_21_0" index="0" speed="4.81" length="9.28" shape="2271.91,3462.77 2271.79,3464.79 2270.06,3466.91 2267.76,3468.22 2265.92,3467.86"/>
    </edge>
    <edge id=":antrim_22" function="internal">
        <lane id=":antrim_22_0" index="0" speed="4.37" length="7.43" shape="2271.91,3462.77 2271.80,3464.40 2270.40,3466.10 2268.56,3467.16 2267.12,3466.84"/>
    </edge>
    <edge id=":antrim_23" function="internal">
        <lane id=":antrim_23_0" index="0" speed="4.93" length="9.97" shape="2271.91,3462.77 2272.27,3465.83 2271.52,3467.58 2269.67,3468.04 2266.71,3467.19"/>
    </edge>
    <edge id=":antrim_24" function="internal">
        <lane id=":antrim_24_0" index="0" speed="5.67" length="13.57" shape="2270.86,3463.67 2273.71,3467.62 2275.00,3468.65 2274.72,3466.76 2272.86,3461.96"/>
    </edge>
    <edge id=":antrim_25" function="internal">
        <lane id=":antrim_25_0" index="0" speed="5.79" length="14.21" shape="2270.86,3463.67 2273.84,3467.79 2275.20,3468.85 2274.93,3466.86 2273.03,3461.82"/>
    </edge>
    <edge id=":antrim_26" function="internal">
        <lane id=":antrim_26_0" index="0" speed="6.82" length="19.30" shape="2270.86,3463.67 2275.70,3470.25 2278.66,3472.85 2279.73,3471.47 2278.93,3466.10"/>
    </edge>
    <edge id=":antrim_27" function="internal">
        <lane id=":antrim_27_0" index="0" speed="5.43" length="10.67" shape="2270.86,3463.67 2273.63,3467.40 2275.56,3469.13 2276.66,3468.85 2276.92,3466.57"/>
    </edge>
    <edge id=":antrim_28" function="internal">
        <lane id=":antrim_28_0" index="0" speed="8.44" length="27.48" shape="2270.86,3463.67 2273.28,3470.87 2271.64,3477.25 2266.82,3481.11 2259.71,3480.77"/>
    </edge>
    <edge id=":antrim_29" function="internal">
        <lane id=":antrim_29_0" index="0" speed="4.43" length="7.66" shape="2270.86,3463.67 2270.79,3465.31 2269.36,3467.05 2267.45,3468.15 2265.92,3467.86"/>
    </edge>
    <edge id=":antrim_30" function="internal">
        <lane id=":antrim_30_0" index="0" speed="4.13" length="6.44" shape="2270.86,3463.67 2270.79,3465.06 2269.58,3466.53 2267.97,3467.45 2266.71,3467.19"/>
    </edge>
    <edge id=":antrim_31" function="internal">
        <lane id=":antrim_31_0" index="0" speed="4.28" length="7.15" shape="2270.86,3463.67 2271.11,3465.86 2270.57,3467.12 2269.24,3467.45 2267.12,3466.84"/>
    </edge>
    <edge id=":antrim_32" function="internal">
        <lane id=":antrim_32_0" index="0" speed="5.75" length="13.03" shape="2263.18,3471.59 2267.36,3473.47 2269.21,3473.47 2268.73,3471.60 2265.92,3467.86"/>
    </edge>
    <edge id=":antrim_33" function="internal">
        <lane id=":antrim_33_0" index="0" speed="6.11" length="14.72" shape="2263.18,3471.59 2267.90,3473.68 2270.06,3473.64 2269.66,3471.48 2266.71,3467.19"/>
    </edge>
    <edge id=":antrim_34" function="internal">
        <lane id=":antrim_34_0" index="0" speed="6.27" length="15.53" shape="2263.18,3471.59 2268.15,3473.78 2270.46,3473.71 2270.12,3471.40 2267.12,3466.84"/>
    </edge>
    <edge id=":antrim_35" function="internal">
        <lane id=":antrim_35_0" index="0" speed="8.06" length="24.15" shape="2263.18,3471.59 2270.41,3474.47 2274.43,3473.82 2275.25,3469.65 2272.86,3461.96"/>
    </edge>
    <edge id=":antrim_36" function="internal">
        <lane id=":antrim_36_0" index="0" speed="8.86" length="29.44" shape="2262.04,3474.61 2270.53,3477.91 2275.19,3476.87 2276.02,3471.51 2273.03,3461.82"/>
    </edge>
    <edge id=":antrim_37" function="internal">
        <lane id=":antrim_37_0" index="0" speed="9.06" length="28.58" shape="2262.04,3474.61 2271.19,3478.33 2277.06,3478.15 2279.64,3474.07 2278.93,3466.10"/>
    </edge>
    <edge id=":antrim_38" function="internal">
        <lane id=":antrim_38_0" index="0" speed="9.28" length="27.37" shape="2262.04,3474.61 2270.27,3477.79 2276.02,3477.39 2279.30,3473.40 2280.09,3465.82"/>
    </edge>
    <edge id=":antrim_39" function="internal">
        <lane id=":antrim_39_0" index="0" speed="4.86" length="9.62" shape="2262.04,3474.61 2263.77,3477.02 2263.96,3478.86 2262.61,3480.11 2259.71,3480.77"/>
    </edge>
    <edge id=":antrim_40" function="internal">
        <lane id=":antrim_40_0" index="0" speed="7.06" length="18.15" shape="2265.48,3490.85 2269.26,3488.83 2269.56,3486.47 2266.38,3483.79 2259.71,3480.77"/>
    </edge>
    <edge id=":antrim_41" function="internal">
        <lane id=":antrim_41_0" index="0" speed="9.91" length="28.77" shape="2265.48,3490.85 2271.33,3487.45 2273.36,3482.49 2271.55,3475.96 2265.92,3467.86"/>
    </edge>
    <edge id=":antrim_42" function="internal">
        <lane id=":antrim_42_0" index="0" speed="10.00" length="29.32" shape="2265.48,3490.85 2271.46,3487.38 2273.66,3482.28 2272.08,3475.55 2266.71,3467.19"/>
    </edge>
    <edge id=":antrim_43" function="internal">
        <lane id=":antrim_43_0" index="0" speed="10.00" length="29.62" shape="2265.48,3490.85 2271.53,3487.35 2273.82,3482.18 2272.35,3475.34 2267.12,3466.84"/>
    </edge>
    <edge id=":antrim_44" function="internal">
        <lane id=":antrim_44_0" index="0" speed="10.00" length="34.29" shape="2265.48,3490.85 2272.36,3486.88 2275.89,3480.74 2276.06,3472.44 2272.86,3461.96"/>
    </edge>
    <edge id=":antrim_45" function="internal">
        <lane id=":antrim_45_0" index="0" speed="10.00" length="37.32" shape="2266.50,3493.89 2273.42,3489.69 2276.82,3482.94 2276.69,3473.65 2273.03,3461.82"/>
    </edge>
    <edge id=":antrim_46" function="internal">
        <lane id=":antrim_46_0" index="0" speed="10.00" length="33.97" shape="2266.50,3493.89 2273.88,3489.92 2278.41,3483.97 2280.09,3476.03 2278.93,3466.10"/>
    </edge>
    <edge id=":antrim_47" function="internal">
        <lane id=":antrim_47_0" index="0" speed="10.00" length="33.58" shape="2266.50,3493.89 2272.86,3490.28 2277.24,3484.39 2279.65,3476.24 2280.09,3465.82"/>
    </edge>
    <edge id=":antrim_48" function="internal">
        <lane id=":antrim_48_0" index="0" speed="8.81" length="26.51" shape="2268.15,3497.52 2272.92,3493.39 2273.11,3489.23 2268.70,3485.02 2259.71,3480.77"/>
    </edge>
    <edge id=":antrim_49" function="internal">
        <lane id=":antrim_49_0" index="0" speed="10.00" length="34.83" shape="2268.15,3497.52 2273.78,3492.31 2275.29,3485.63 2272.67,3477.48 2265.92,3467.86"/>
    </edge>
    <edge id=":antrim_50" function="internal">
        <lane id=":antrim_50_0" index="0" speed="10.00" length="35.26" shape="2268.15,3497.52 2273.85,3492.26 2275.51,3485.45 2273.13,3477.09 2266.71,3467.19"/>
    </edge>
    <edge id=":antrim_51" function="internal">
        <lane id=":antrim_51_0" index="0" speed="10.00" length="35.49" shape="2268.15,3497.52 2273.89,3492.23 2275.63,3485.35 2273.38,3476.89 2267.12,3466.84"/>
    </edge>
    <edge id=":antrim_52" function="internal">
        <lane id=":antrim_52_0" index="0" speed="10.00" length="39.43" shape="2268.15,3497.52 2274.38,3491.85 2277.24,3484.03 2276.74,3474.07 2272.86,3461.96"/>
    </edge>
    <edge id=":antrim_53" function="internal">
        <lane id=":antrim_53_0" index="0" speed="10.00" length="39.57" shape="2268.15,3497.52 2274.39,3491.84 2277.29,3483.99 2276.84,3473.99 2273.03,3461.82"/>
    </edge>
    <edge id=":antrim_54" function="internal">
        <lane id=":antrim_54_0" index="0" speed="10.00" length="35.85" shape="2268.15,3497.52 2274.83,3492.06 2278.85,3485.01 2280.22,3476.35 2278.93,3466.10"/>
    </edge>
    <edge id=":antrim_55" function="internal">
        <lane id=":antrim_55_0" index="0" speed="10.00" length="37.73" shape="2268.15,3497.52 2275.17,3491.96 2280.03,3484.70 2282.72,3475.74 2283.26,3465.07"/>
    </edge>
    <edge id=":athlone_0" function="internal">
        <lane id=":athlone_0_0" index="0" speed="9.85" length="36.36" shape="1255.76,1988.98 1253.90,1982.60 1249.22,1982.27 1241.74,1987.97 1231.44,1999.72"/>
    </edge>
    <edge id=":athlone_1" function="internal">
        <lane id=":athlone_1_0" index="0" speed="10.00" length="44.47" shape="1255.76,1988.98 1256.12,1980.63 1257.28,1966.77 1258.80,1952.97 1260.27,1944.78"/>
    </edge>
    <edge id=":athlone_2" function="internal">
        <lane id=":athlone_2_0" index="0" speed="10.00" length="44.86" shape="1255.76,1988.98 1256.71,1980.61 1259.24,1966.76 1262.36,1953.07 1265.04,1945.20"/>
    </edge>
    <edge id=":athlone_3" function="internal">
        <lane id=":athlone_3_0" index="0" speed="10.00" length="43.79" shape="1255.76,1988.98 1256.11,1975.71 1258.55,1964.68 1263.09,1955.89 1269.73,1949.34"/>
    </edge>
    <edge id=":athlone_4" function="internal">
        <lane id=":athlone_4_0" index="0" speed="10.00" length="69.75" shape="1255.76,1988.98 1258.03,1975.10 1266.23,1962.47 1280.37,1951.11 1300.46,1941.00"/>
    </edge>
    <edge id=":athlone_5" function="internal">
        <lane id=":athlone_5_0" index="0" speed="10.00" length="67.97" shape="1255.76,1988.98 1258.17,1975.44 1266.82,1964.01 1281.72,1954.72 1302.85,1947.54"/>
    </edge>
    <edge id=":athlone_6" function="internal">
        <lane id=":athlone_6_0" index="0" speed="10.00" length="44.97" shape="1255.76,1988.98 1258.69,1981.10 1266.81,1983.24 1277.08,1991.83 1286.43,2003.28"/>
    </edge>
    <edge id=":athlone_7" function="internal">
        <lane id=":athlone_7_0" index="0" speed="10.00" length="39.64" shape="1259.45,1988.47 1256.35,1981.84 1250.64,1981.51 1242.34,1987.47 1231.44,1999.72"/>
    </edge>
    <edge id=":athlone_8" function="internal">
        <lane id=":athlone_8_0" index="0" speed="10.00" length="43.76" shape="1259.45,1988.47 1258.95,1980.23 1258.87,1966.54 1259.28,1952.90 1260.27,1944.78"/>
    </edge>
    <edge id=":athlone_9" function="internal">
        <lane id=":athlone_9_0" index="0" speed="10.00" length="44.71" shape="1259.45,1988.47 1257.87,1975.33 1258.28,1963.73 1260.67,1953.69 1265.04,1945.20"/>
    </edge>
    <edge id=":athlone_10" function="internal">
        <lane id=":athlone_10_0" index="0" speed="10.00" length="42.73" shape="1259.45,1988.47 1258.14,1975.45 1259.42,1964.59 1263.28,1955.89 1269.73,1949.34"/>
    </edge>
    <edge id=":athlone_11" function="internal">
        <lane id=":athlone_11_0" index="0" speed="10.00" length="67.85" shape="1259.45,1988.47 1260.04,1974.83 1267.07,1962.37 1280.54,1951.10 1300.46,1941.00"/>
    </edge>
    <edge id=":athlone_12" function="internal">
        <lane id=":athlone_12_0" index="0" speed="10.00" length="65.94" shape="1259.45,1988.47 1260.18,1975.16 1267.65,1963.91 1281.88,1954.70 1302.85,1947.54"/>
    </edge>
    <edge id=":athlone_13" function="internal">
        <lane id=":athlone_13_0" index="0" speed="9.79" length="41.02" shape="1259.45,1988.47 1261.01,1981.69 1268.19,1984.25 1277.74,1992.62 1286.43,2003.28"/>
    </edge>
    <edge id=":athlone_14" function="internal">
        <lane id=":athlone_14_0" index="0" speed="10.00" length="41.13" shape="1261.19,1988.05 1257.47,1981.42 1251.27,1981.16 1242.60,1987.26 1231.44,1999.72"/>
    </edge>
    <edge id=":athlone_15" function="internal">
        <lane id=":athlone_15_0" index="0" speed="10.00" length="43.37" shape="1261.19,1988.05 1260.29,1979.90 1259.62,1966.36 1259.51,1952.84 1260.27,1944.78"/>
    </edge>
    <edge id=":athlone_16" function="internal">
        <lane id=":athlone_16_0" index="0" speed="10.00" length="44.30" shape="1261.19,1988.05 1258.84,1975.11 1258.69,1963.65 1260.76,1953.68 1265.04,1945.20"/>
    </edge>
    <edge id=":athlone_17" function="internal">
        <lane id=":athlone_17_0" index="0" speed="10.00" length="42.19" shape="1261.19,1988.05 1259.09,1975.23 1259.82,1964.51 1263.37,1955.88 1269.73,1949.34"/>
    </edge>
    <edge id=":athlone_18" function="internal">
        <lane id=":athlone_18_0" index="0" speed="10.00" length="66.89" shape="1261.19,1988.05 1260.99,1974.61 1267.47,1962.29 1280.62,1951.09 1300.46,1941.00"/>
    </edge>
    <edge id=":athlone_19" function="internal">
        <lane id=":athlone_19_0" index="0" speed="10.00" length="58.95" shape="1261.19,1988.05 1265.80,1979.29 1278.17,1966.18 1292.48,1953.87 1302.85,1947.54"/>
    </edge>
    <edge id=":athlone_20" function="internal">
        <lane id=":athlone_20_0" index="0" speed="9.47" length="39.28" shape="1261.19,1988.05 1262.15,1981.82 1268.87,1984.62 1278.06,1992.94 1286.43,2003.28"/>
    </edge>
    <edge id=":athlone_21" function="internal">
        <lane id=":athlone_21_0" index="0" speed="10.00" length="63.59" shape="1280.83,2006.96 1269.00,1991.45 1256.83,1985.07 1244.31,1987.83 1231.44,1999.72"/>
    </edge>
    <edge id=":athlone_22" function="internal">
        <lane id=":athlone_22_0" index="0" speed="10.00" length="66.81" shape="1280.83,2006.96 1269.57,1985.89 1262.39,1968.51 1259.29,1954.81 1260.27,1944.78"/>
    </edge>
    <edge id=":athlone_23" function="internal">
        <lane id=":athlone_23_0" index="0" speed="10.00" length="66.14" shape="1280.83,2006.96 1269.82,1985.83 1263.52,1968.50 1261.93,1954.95 1265.04,1945.20"/>
    </edge>
    <edge id=":athlone_24" function="internal">
        <lane id=":athlone_24_0" index="0" speed="10.00" length="62.71" shape="1280.83,2006.96 1270.03,1985.95 1264.58,1969.34 1264.48,1957.14 1269.73,1949.34"/>
    </edge>
    <edge id=":athlone_25" function="internal">
        <lane id=":athlone_25_0" index="0" speed="10.00" length="70.00" shape="1280.83,2006.96 1280.86,1993.88 1285.89,1972.36 1293.30,1951.65 1300.46,1941.00"/>
    </edge>
    <edge id=":athlone_26" function="internal">
        <lane id=":athlone_26_0" index="0" speed="10.00" length="78.15" shape="1280.83,2006.96 1272.01,1986.04 1272.41,1969.06 1282.52,1956.17 1302.85,1947.54"/>
    </edge>
    <edge id=":athlone_27" function="internal">
        <lane id=":athlone_27_0" index="0" speed="4.85" length="9.78" shape="1280.83,2006.96 1280.85,2003.94 1281.79,2002.32 1283.65,2002.10 1286.43,2003.28"/>
    </edge>
    <edge id=":athlone_28" function="internal">
        <lane id=":athlone_28_0" index="0" speed="7.81" length="28.30" shape="1289.38,2001.01 1282.22,1993.29 1279.34,1991.09 1280.74,1994.42 1286.43,2003.28"/>
    </edge>
    <edge id=":athlone_29" function="internal">
        <lane id=":athlone_29_0" index="0" speed="10.00" length="69.05" shape="1289.38,2001.01 1274.08,1987.77 1259.32,1983.14 1245.11,1987.12 1231.44,1999.72"/>
    </edge>
    <edge id=":athlone_30" function="internal">
        <lane id=":athlone_30_0" index="0" speed="10.00" length="65.32" shape="1289.38,2001.01 1274.36,1982.62 1264.50,1967.12 1259.80,1954.51 1260.27,1944.78"/>
    </edge>
    <edge id=":athlone_31" function="internal">
        <lane id=":athlone_31_0" index="0" speed="10.00" length="64.20" shape="1289.38,2001.01 1274.58,1982.56 1265.59,1967.11 1262.41,1954.66 1265.04,1945.20"/>
    </edge>
    <edge id=":athlone_32" function="internal">
        <lane id=":athlone_32_0" index="0" speed="10.00" length="55.83" shape="1289.38,2001.01 1283.28,1990.52 1275.89,1973.71 1270.33,1957.64 1269.73,1949.34"/>
    </edge>
    <edge id=":athlone_33" function="internal">
        <lane id=":athlone_33_0" index="0" speed="10.00" length="62.58" shape="1289.38,2001.01 1287.47,1989.31 1289.62,1969.78 1294.43,1950.87 1300.46,1941.00"/>
    </edge>
    <edge id=":athlone_34" function="internal">
        <lane id=":athlone_34_0" index="0" speed="10.00" length="69.99" shape="1289.38,2001.01 1278.73,1984.05 1277.35,1968.49 1285.36,1955.83 1302.85,1947.54"/>
    </edge>
    <edge id=":athlone_35" function="internal">
        <lane id=":athlone_35_0" index="0" speed="9.43" length="38.34" shape="1268.80,1971.59 1267.33,1971.83 1269.78,1977.19 1276.14,1987.67 1286.43,2003.28"/>
    </edge>
    <edge id=":athlone_36" function="internal">
        <lane id=":athlone_36_0" index="0" speed="10.00" length="49.09" shape="1268.80,1971.59 1262.78,1970.86 1254.55,1975.30 1244.11,1984.92 1231.44,1999.72"/>
    </edge>
    <edge id=":athlone_37" function="internal">
        <lane id=":athlone_37_0" index="0" speed="10.00" length="30.64" shape="1268.80,1971.59 1262.74,1966.18 1259.30,1959.90 1258.48,1952.77 1260.27,1944.78"/>
    </edge>
    <edge id=":athlone_38" function="internal">
        <lane id=":athlone_38_0" index="0" speed="10.00" length="28.82" shape="1268.80,1971.59 1264.39,1966.39 1262.26,1959.26 1262.46,1951.70 1265.04,1945.20"/>
    </edge>
    <edge id=":athlone_39" function="internal">
        <lane id=":athlone_39_0" index="0" speed="9.26" length="24.72" shape="1268.80,1971.59 1265.50,1966.96 1264.68,1960.51 1266.16,1954.04 1269.73,1949.34"/>
    </edge>
    <edge id=":athlone_40" function="internal">
        <lane id=":athlone_40_0" index="0" speed="10.00" length="45.06" shape="1268.80,1971.59 1270.52,1965.89 1279.71,1956.32 1291.35,1946.74 1300.46,1941.00"/>
    </edge>
    <edge id=":athlone_41" function="internal">
        <lane id=":athlone_41_0" index="0" speed="10.00" length="42.91" shape="1268.80,1971.59 1270.66,1966.62 1280.59,1959.03 1293.15,1951.71 1302.85,1947.54"/>
    </edge>
    <edge id=":athlone_42" function="internal">
        <lane id=":athlone_42_0" index="0" speed="10.00" length="43.57" shape="1268.89,1966.39 1266.57,1967.71 1268.72,1974.30 1275.34,1986.15 1286.43,2003.28"/>
    </edge>
    <edge id=":athlone_43" function="internal">
        <lane id=":athlone_43_0" index="0" speed="10.00" length="52.46" shape="1268.89,1966.39 1261.78,1967.02 1252.75,1972.45 1241.80,1982.69 1228.93,1997.73"/>
    </edge>
    <edge id=":athlone_44" function="internal">
        <lane id=":athlone_44_0" index="0" speed="10.00" length="26.92" shape="1268.89,1966.39 1262.73,1963.42 1259.24,1958.82 1258.42,1952.61 1260.27,1944.78"/>
    </edge>
    <edge id=":athlone_45" function="internal">
        <lane id=":athlone_45_0" index="0" speed="9.20" length="23.85" shape="1268.89,1966.39 1264.80,1963.07 1262.84,1957.26 1262.95,1950.72 1265.04,1945.20"/>
    </edge>
    <edge id=":athlone_46" function="internal">
        <lane id=":athlone_46_0" index="0" speed="7.62" length="19.36" shape="1268.89,1966.39 1266.06,1963.52 1265.52,1958.50 1266.87,1953.17 1269.73,1949.34"/>
    </edge>
    <edge id=":athlone_47" function="internal">
        <lane id=":athlone_47_0" index="0" speed="10.00" length="41.45" shape="1268.89,1966.39 1270.20,1962.19 1279.40,1954.33 1291.24,1946.16 1300.46,1941.00"/>
    </edge>
    <edge id=":athlone_48" function="internal">
        <lane id=":athlone_48_0" index="0" speed="9.88" length="39.86" shape="1268.89,1966.39 1270.23,1962.96 1280.19,1957.07 1292.99,1951.14 1302.85,1947.54"/>
    </edge>
    <edge id=":athlone_49" function="internal">
        <lane id=":athlone_49_0" index="0" speed="10.00" length="69.84" shape="1303.63,1950.64 1285.67,1958.19 1276.82,1969.48 1277.07,1984.51 1286.43,2003.28"/>
    </edge>
    <edge id=":athlone_50" function="internal">
        <lane id=":athlone_50_0" index="0" speed="10.00" length="88.43" shape="1303.63,1950.64 1290.79,1957.41 1266.79,1971.71 1242.54,1987.24 1228.93,1997.73"/>
    </edge>
    <edge id=":athlone_51" function="internal">
        <lane id=":athlone_51_0" index="0" speed="10.00" length="44.83" shape="1303.63,1950.64 1292.93,1951.44 1277.94,1950.64 1264.96,1948.38 1260.27,1944.78"/>
    </edge>
    <edge id=":athlone_52" function="internal">
        <lane id=":athlone_52_0" index="0" speed="10.00" length="40.69" shape="1303.63,1950.64 1293.35,1951.59 1279.47,1951.09 1268.01,1949.01 1265.04,1945.20"/>
    </edge>
    <edge id=":athlone_53" function="internal">
        <lane id=":athlone_53_0" index="0" speed="10.00" length="44.82" shape="1303.63,1950.64 1288.46,1953.91 1274.06,1955.80 1265.97,1954.78 1269.73,1949.34"/>
    </edge>
    <edge id=":athlone_54" function="internal">
        <lane id=":athlone_54_0" index="0" speed="5.75" length="14.25" shape="1303.63,1950.64 1300.10,1950.02 1298.04,1947.14 1297.99,1943.61 1300.46,1941.00"/>
    </edge>
    <edge id=":athlone_55" function="internal">
        <lane id=":athlone_55_0" index="0" speed="3.65" length="4.67" shape="1303.63,1950.64 1302.28,1950.16 1301.69,1949.48 1301.88,1948.61 1302.85,1947.54"/>
    </edge>
    <edge id=":athlone_56" function="internal">
        <lane id=":athlone_56_0" index="0" speed="7.61" length="26.65" shape="1301.67,1943.96 1292.60,1947.94 1289.78,1949.87 1293.19,1949.73 1302.85,1947.54"/>
    </edge>
    <edge id=":athlone_57" function="internal">
        <lane id=":athlone_57_0" index="0" speed="10.00" length="73.60" shape="1301.67,1943.96 1284.50,1954.34 1276.24,1967.68 1276.88,1983.99 1286.43,2003.28"/>
    </edge>
    <edge id=":athlone_58" function="internal">
        <lane id=":athlone_58_0" index="0" speed="10.00" length="90.53" shape="1301.67,1943.96 1289.23,1952.07 1265.90,1968.62 1242.27,1986.29 1228.93,1997.73"/>
    </edge>
    <edge id=":athlone_59" function="internal">
        <lane id=":athlone_59_0" index="0" speed="10.00" length="49.85" shape="1301.67,1943.96 1285.40,1950.02 1270.79,1953.62 1261.28,1952.59 1260.27,1944.78"/>
    </edge>
    <edge id=":athlone_60" function="internal">
        <lane id=":athlone_60_0" index="0" speed="9.83" length="38.71" shape="1301.67,1943.96 1291.79,1946.57 1278.44,1948.49 1267.55,1948.45 1265.04,1945.20"/>
    </edge>
    <edge id=":athlone_61" function="internal">
        <lane id=":athlone_61_0" index="0" speed="8.65" length="34.01" shape="1301.67,1943.96 1292.19,1946.95 1279.90,1949.84 1270.50,1951.14 1269.73,1949.34"/>
    </edge>
    <edge id=":athlone_62" function="internal">
        <lane id=":athlone_62_0" index="0" speed="3.65" length="4.67" shape="1301.67,1943.96 1300.26,1943.68 1299.59,1943.09 1299.65,1942.20 1300.46,1941.00"/>
    </edge>
    <edge id=":athlone_63" function="internal">
        <lane id=":athlone_63_0" index="0" speed="4.84" length="8.82" shape="1267.65,1947.50 1265.97,1950.13 1265.76,1951.32 1267.01,1951.05 1269.73,1949.34"/>
    </edge>
    <edge id=":athlone_64" function="internal">
        <lane id=":athlone_64_0" index="0" speed="9.78" length="38.48" shape="1267.65,1947.50 1267.03,1950.80 1272.30,1950.83 1283.44,1947.56 1300.46,1941.00"/>
    </edge>
    <edge id=":athlone_65" function="internal">
        <lane id=":athlone_65_0" index="0" speed="10.00" length="40.76" shape="1267.65,1947.50 1266.92,1951.58 1272.55,1952.95 1284.52,1951.60 1302.85,1947.54"/>
    </edge>
    <edge id=":athlone_66" function="internal">
        <lane id=":athlone_66_0" index="0" speed="10.00" length="61.21" shape="1267.65,1947.50 1265.18,1956.06 1267.49,1968.21 1274.58,1983.95 1286.43,2003.28"/>
    </edge>
    <edge id=":athlone_67" function="internal">
        <lane id=":athlone_67_0" index="0" speed="10.00" length="63.42" shape="1267.65,1947.50 1228.93,1997.73"/>
    </edge>
    <edge id=":athlone_68" function="internal">
        <lane id=":athlone_68_0" index="0" speed="3.33" length="3.47" shape="1267.65,1947.50 1265.04,1945.20"/>
    </edge>
    <edge id=":athlone_69" function="internal">
        <lane id=":athlone_69_0" index="0" speed="5.35" length="11.48" shape="1267.65,1947.50 1264.79,1949.58 1262.60,1949.83 1261.10,1948.23 1260.27,1944.78"/>
    </edge>
    <edge id=":athlone_70" function="internal">
        <lane id=":athlone_70_0" index="0" speed="4.95" length="9.27" shape="1267.46,1947.33 1265.75,1950.12 1265.56,1951.39 1266.88,1951.12 1269.73,1949.34"/>
    </edge>
    <edge id=":athlone_71" function="internal">
        <lane id=":athlone_71_0" index="0" speed="9.83" length="38.71" shape="1267.46,1947.33 1266.88,1950.73 1272.19,1950.81 1283.38,1947.57 1300.46,1941.00"/>
    </edge>
    <edge id=":athlone_72" function="internal">
        <lane id=":athlone_72_0" index="0" speed="10.00" length="40.98" shape="1267.46,1947.33 1266.78,1951.50 1272.46,1952.92 1284.48,1951.60 1302.85,1947.54"/>
    </edge>
    <edge id=":athlone_73" function="internal">
        <lane id=":athlone_73_0" index="0" speed="10.00" length="61.38" shape="1267.46,1947.33 1265.07,1955.96 1267.44,1968.16 1274.56,1983.93 1286.43,2003.28"/>
    </edge>
    <edge id=":athlone_74" function="internal">
        <lane id=":athlone_74_0" index="0" speed="10.00" length="63.44" shape="1267.46,1947.33 1228.93,1997.73"/>
    </edge>
    <edge id=":athlone_75" function="internal">
        <lane id=":athlone_75_0" index="0" speed="5.16" length="10.61" shape="1267.46,1947.33 1265.11,1948.96 1262.41,1948.85 1260.43,1947.35 1260.27,1944.78"/>
    </edge>
    <edge id=":athlone_76" function="internal">
        <lane id=":athlone_76_0" index="0" speed="3.66" length="4.70" shape="1267.46,1947.33 1266.06,1947.70 1265.19,1947.47 1264.85,1946.64 1265.04,1945.20"/>
    </edge>