<?xml version="1.0" encoding="UTF-8"?>

<!-- generated on 2025-02-19 12:39:29 by Eclipse SUMO netconvert Version 1.18.0
<configuration xmlns:xsi="http://www.w3.org/2001/XMLSchema-instance" xsi:noNamespaceSchemaLocation="http://sumo.dlr.de/xsd/netconvertConfiguration.xsd">

    <input>
        <node-files value="nod.xml"/>
        <edge-files value="edge_xmls/06830.xml"/>
    </input>

    <output>
        <output-file value="networks/06830.net.xml"/>
    </output>

</configuration>
-->

<net version="1.16" junctionCornerDetail="5" limitTurnSpeed="5.50" xmlns:xsi="http://www.w3.org/2001/XMLSchema-instance" xsi:noNamespaceSchemaLocation="http://sumo.dlr.de/xsd/net_file.xsd">

    <location netOffset="-682.00,4368.00" convBoundary="0.00,0.00,2498.00,3881.00" origBoundary="682.00,-4368.00,3180.00,-487.00" projParameter="!"/>

    <edge id=":antrim_0" function="internal">
        <lane id=":antrim_0_0" index="0" speed="10.00" length="11.86" shape="2293.27,3486.45 2290.49,3488.16 2288.17,3489.50 2285.77,3490.65 2282.72,3491.79"/>
    </edge>
    <edge id=":antrim_1" function="internal">
        <lane id=":antrim_1_0" index="0" speed="10.00" length="57.91" shape="2293.27,3486.45 2287.21,3486.87 2276.23,3483.76 2260.33,3477.10 2239.50,3466.91"/>
    </edge>
    <edge id=":antrim_2" function="internal">
        <lane id=":antrim_2_0" index="0" speed="10.00" length="50.65" shape="2293.27,3486.45 2286.96,3487.00 2278.42,3482.31 2267.66,3472.40 2254.68,3457.25"/>
    </edge>
    <edge id=":antrim_3" function="internal">
        <lane id=":antrim_3_0" index="0" speed="10.00" length="48.80" shape="2293.27,3486.45 2288.28,3486.13 2281.05,3480.47 2271.59,3469.47 2259.88,3453.12"/>
    </edge>
    <edge id=":antrim_4" function="internal">
        <lane id=":antrim_4_0" index="0" speed="10.00" length="55.19" shape="2293.27,3486.45 2287.55,3485.01 2280.61,3475.85 2272.77,3460.81 2264.35,3441.76"/>
    </edge>
    <edge id=":antrim_5" function="internal">
        <lane id=":antrim_5_0" index="0" speed="10.00" length="40.78" shape="2293.27,3486.45 2288.17,3485.96 2283.12,3479.30 2278.15,3468.07 2273.32,3453.85"/>
    </edge>
    <edge id=":antrim_6" function="internal">
        <lane id=":antrim_6_0" index="0" speed="10.00" length="38.89" shape="2293.27,3486.45 2288.56,3485.84 2285.01,3478.76 2282.41,3467.15 2280.53,3452.94"/>
    </edge>
    <edge id=":antrim_7" function="internal">
        <lane id=":antrim_7_0" index="0" speed="10.00" length="39.86" shape="2283.71,3452.60 2285.16,3469.12 2285.47,3481.15 2284.66,3488.71 2282.72,3491.79"/>
    </edge>
    <edge id=":antrim_8" function="internal">
        <lane id=":antrim_8_0" index="0" speed="10.00" length="59.71" shape="2283.71,3452.60 2281.19,3467.33 2271.25,3473.81 2256.49,3473.26 2239.50,3466.91"/>
    </edge>
    <edge id=":antrim_9" function="internal">
        <lane id=":antrim_9_0" index="0" speed="9.94" length="39.73" shape="2283.71,3452.60 2281.34,3461.98 2273.66,3465.82 2263.74,3464.21 2254.68,3457.25"/>
    </edge>
    <edge id=":antrim_10" function="internal">
        <lane id=":antrim_10_0" index="0" speed="8.88" length="32.38" shape="2283.71,3452.60 2281.63,3459.78 2275.10,3461.92 2266.93,3459.52 2259.88,3453.12"/>
    </edge>
    <edge id=":antrim_11" function="internal">
        <lane id=":antrim_11_0" index="0" speed="8.26" length="30.03" shape="2283.71,3452.60 2281.92,3457.68 2276.32,3456.04 2269.58,3449.97 2264.35,3441.76"/>
    </edge>
    <edge id=":antrim_12" function="internal">
        <lane id=":antrim_12_0" index="0" speed="5.87" length="14.64" shape="2283.71,3452.60 2282.60,3456.02 2279.40,3457.47 2275.77,3456.81 2273.32,3453.85"/>
    </edge>
    <edge id=":antrim_13" function="internal">
        <lane id=":antrim_13_0" index="0" speed="3.65" length="4.67" shape="2283.71,3452.60 2283.05,3453.88 2282.29,3454.37 2281.46,3454.05 2280.53,3452.94"/>
    </edge>
    <edge id=":antrim_14" function="internal">
        <lane id=":antrim_14_0" index="0" speed="6.90" length="21.09" shape="2276.38,3452.89 2279.00,3460.45 2280.57,3462.98 2281.08,3460.48 2280.53,3452.94"/>
    </edge>
    <edge id=":antrim_15" function="internal">
        <lane id=":antrim_15_0" index="0" speed="10.00" length="40.27" shape="2276.38,3452.89 2281.13,3469.24 2283.77,3481.18 2284.30,3488.70 2282.72,3491.79"/>
    </edge>
    <edge id=":antrim_16" function="internal">
        <lane id=":antrim_16_0" index="0" speed="10.00" length="51.88" shape="2276.38,3452.89 2276.12,3465.31 2267.70,3471.50 2254.41,3471.88 2239.50,3466.91"/>
    </edge>
    <edge id=":antrim_17" function="internal">
        <lane id=":antrim_17_0" index="0" speed="7.90" length="26.52" shape="2276.38,3452.89 2275.67,3458.77 2270.49,3461.08 2263.45,3459.89 2257.18,3455.27"/>
    </edge>
    <edge id=":antrim_18" function="internal">
        <lane id=":antrim_18_0" index="0" speed="7.25" length="22.70" shape="2276.38,3452.89 2275.67,3457.68 2271.08,3459.13 2265.01,3457.52 2259.88,3453.12"/>
    </edge>
    <edge id=":antrim_19" function="internal">
        <lane id=":antrim_19_0" index="0" speed="6.90" length="21.89" shape="2276.38,3452.89 2276.14,3456.00 2272.71,3453.73 2268.10,3448.26 2264.35,3441.76"/>
    </edge>
    <edge id=":antrim_20" function="internal">
        <lane id=":antrim_20_0" index="0" speed="3.65" length="4.67" shape="2276.38,3452.89 2275.97,3454.27 2275.33,3454.89 2274.44,3454.75 2273.32,3453.85"/>
    </edge>
    <edge id=":antrim_21" function="internal">
        <lane id=":antrim_21_0" index="0" speed="8.12" length="30.53" shape="2260.51,3444.04 2266.60,3453.52 2269.28,3456.30 2268.52,3452.38 2264.35,3441.76"/>
    </edge>
    <edge id=":antrim_22" function="internal">
        <lane id=":antrim_22_0" index="0" speed="8.59" length="33.26" shape="2260.51,3444.04 2268.83,3457.01 2273.74,3462.97 2275.24,3461.91 2273.32,3453.85"/>
    </edge>
    <edge id=":antrim_23" function="internal">
        <lane id=":antrim_23_0" index="0" speed="9.88" length="41.34" shape="2260.51,3444.04 2270.44,3458.85 2277.08,3465.27 2280.45,3463.31 2280.53,3452.94"/>
    </edge>
    <edge id=":antrim_24" function="internal">
        <lane id=":antrim_24_0" index="0" speed="10.00" length="53.58" shape="2260.51,3444.04 2271.06,3461.82 2279.10,3476.69 2283.39,3487.17 2282.72,3491.79"/>
    </edge>
    <edge id=":antrim_25" function="internal">
        <lane id=":antrim_25_0" index="0" speed="10.00" length="42.11" shape="2260.51,3444.04 2263.17,3454.94 2259.12,3463.95 2250.52,3468.73 2239.50,3466.91"/>
    </edge>
    <edge id=":antrim_26" function="internal">
        <lane id=":antrim_26_0" index="0" speed="6.04" length="16.09" shape="2260.51,3444.04 2261.98,3448.85 2261.63,3453.65 2259.88,3456.44 2257.18,3455.27"/>
    </edge>
    <edge id=":antrim_27" function="internal">
        <lane id=":antrim_27_0" index="0" speed="5.50" length="13.30" shape="2260.51,3444.04 2263.76,3446.54 2264.74,3448.89 2263.45,3451.08 2259.88,3453.12"/>
    </edge>
    <edge id=":antrim_28" function="internal">
        <lane id=":antrim_28_0" index="0" speed="9.02" length="36.81" shape="2260.39,3452.72 2267.85,3461.50 2270.99,3462.60 2269.82,3456.02 2264.35,3441.76"/>
    </edge>
    <edge id=":antrim_29" function="internal">
        <lane id=":antrim_29_0" index="0" speed="8.82" length="33.83" shape="2260.39,3452.72 2269.21,3463.31 2274.30,3467.03 2275.67,3463.87 2273.32,3453.85"/>
    </edge>
    <edge id=":antrim_30" function="internal">
        <lane id=":antrim_30_0" index="0" speed="9.87" length="39.53" shape="2260.39,3452.72 2270.43,3464.26 2277.13,3468.15 2280.50,3464.38 2280.53,3452.94"/>
    </edge>
    <edge id=":antrim_31" function="internal">
        <lane id=":antrim_31_0" index="0" speed="10.00" length="45.11" shape="2260.39,3452.72 2266.40,3461.72 2274.23,3474.69 2280.73,3486.43 2282.72,3491.79"/>
    </edge>
    <edge id=":antrim_32" function="internal">
        <lane id=":antrim_32_0" index="0" speed="9.07" length="34.48" shape="2260.39,3452.72 2262.47,3460.55 2257.81,3466.40 2249.23,3468.97 2239.50,3466.91"/>
    </edge>
    <edge id=":antrim_33" function="internal">
        <lane id=":antrim_33_0" index="0" speed="3.50" length="4.10" shape="2260.39,3452.72 2257.18,3455.27"/>
    </edge>
    <edge id=":antrim_34" function="internal">
        <lane id=":antrim_34_0" index="0" speed="5.13" length="11.26" shape="2260.39,3452.72 2257.81,3449.39 2256.87,3448.35 2257.56,3449.60 2259.88,3453.12"/>
    </edge>
    <edge id=":antrim_35" function="internal">
        <lane id=":antrim_35_0" index="0" speed="3.28" length="3.22" shape="2259.69,3453.28 2260.45,3454.21 2260.74,3454.49 2260.55,3454.13 2259.88,3453.12"/>
    </edge>
    <edge id=":antrim_36" function="internal">
        <lane id=":antrim_36_0" index="0" speed="9.19" length="37.97" shape="2259.69,3453.28 2267.59,3462.14 2271.00,3463.18 2269.92,3456.39 2264.35,3441.76"/>
    </edge>
    <edge id=":antrim_37" function="internal">
        <lane id=":antrim_37_0" index="0" speed="8.95" length="34.56" shape="2259.69,3453.28 2268.87,3463.81 2274.20,3467.41 2275.69,3464.09 2273.32,3453.85"/>
    </edge>
    <edge id=":antrim_38" function="internal">
        <lane id=":antrim_38_0" index="0" speed="9.98" length="40.04" shape="2259.69,3453.28 2270.04,3464.66 2276.97,3468.40 2280.46,3464.49 2280.53,3452.94"/>
    </edge>
    <edge id=":antrim_39" function="internal">
        <lane id=":antrim_39_0" index="0" speed="10.00" length="46.02" shape="2259.69,3453.28 2270.52,3467.30 2278.88,3479.23 2283.39,3487.82 2282.72,3491.79"/>
    </edge>
    <edge id=":antrim_40" function="internal">
        <lane id=":antrim_40_0" index="0" speed="8.24" length="28.33" shape="2259.69,3453.28 2259.68,3458.61 2254.20,3463.87 2246.41,3467.24 2239.50,3466.91"/>
    </edge>
    <edge id=":antrim_41" function="internal">
        <lane id=":antrim_41_0" index="0" speed="3.65" length="4.67" shape="2259.69,3453.28 2259.81,3454.71 2259.43,3455.52 2258.56,3455.71 2257.18,3455.27"/>
    </edge>
    <edge id=":antrim_42" function="internal">
        <lane id=":antrim_42_0" index="0" speed="5.50" length="13.02" shape="2261.02,3452.22 2257.81,3448.59 2256.55,3447.53 2257.24,3449.04 2259.88,3453.12"/>
    </edge>
    <edge id=":antrim_43" function="internal">
        <lane id=":antrim_43_0" index="0" speed="8.12" length="28.82" shape="2261.02,3452.22 2266.98,3458.33 2269.52,3458.63 2268.65,3453.10 2264.35,3441.76"/>
    </edge>
    <edge id=":antrim_44" function="internal">
        <lane id=":antrim_44_0" index="0" speed="8.07" length="27.33" shape="2261.02,3452.22 2268.78,3460.55 2273.42,3463.60 2274.94,3461.36 2273.32,3453.85"/>
    </edge>
    <edge id=":antrim_45" function="internal">
        <lane id=":antrim_45_0" index="0" speed="9.42" length="35.00" shape="2261.02,3452.22 2270.57,3462.07 2277.01,3465.47 2280.33,3462.43 2280.53,3452.94"/>
    </edge>
    <edge id=":antrim_46" function="internal">
        <lane id=":antrim_46_0" index="0" speed="10.00" length="44.82" shape="2258.51,3454.21 2264.97,3462.86 2273.45,3475.32 2280.51,3486.62 2282.72,3491.79"/>
    </edge>
    <edge id=":antrim_47" function="internal">
        <lane id=":antrim_47_0" index="0" speed="7.95" length="26.61" shape="2258.51,3454.21 2258.57,3459.13 2253.40,3464.04 2246.03,3467.21 2239.50,3466.91"/>
    </edge>
    <edge id=":antrim_48" function="internal">
        <lane id=":antrim_48_0" index="0" speed="10.00" length="49.83" shape="2258.51,3454.21 2246.32,3440.05 2242.04,3435.51 2245.66,3440.58 2257.18,3455.27"/>
    </edge>
    <edge id=":antrim_49" function="internal">
        <lane id=":antrim_49_0" index="0" speed="7.26" length="23.25" shape="2244.47,3454.46 2253.02,3460.83 2257.57,3463.41 2258.12,3462.22 2254.68,3457.25"/>
    </edge>
    <edge id=":antrim_50" function="internal">
        <lane id=":antrim_50_0" index="0" speed="9.63" length="41.25" shape="2244.47,3454.46 2258.39,3464.52 2265.60,3467.65 2266.10,3463.85 2259.88,3453.12"/>
    </edge>
    <edge id=":antrim_51" function="internal">
        <lane id=":antrim_51_0" index="0" speed="10.00" length="52.28" shape="2244.47,3454.46 2259.84,3464.72 2268.27,3466.02 2269.77,3458.37 2264.35,3441.76"/>
    </edge>
    <edge id=":antrim_52" function="internal">
        <lane id=":antrim_52_0" index="0" speed="10.00" length="48.07" shape="2244.47,3454.46 2260.70,3465.72 2270.92,3469.36 2275.12,3465.41 2273.32,3453.85"/>
    </edge>
    <edge id=":antrim_53" function="internal">
        <lane id=":antrim_53_0" index="0" speed="10.00" length="52.81" shape="2244.47,3454.46 2261.55,3465.97 2273.25,3469.56 2279.58,3465.21 2280.53,3452.94"/>
    </edge>
    <edge id=":antrim_54" function="internal">
        <lane id=":antrim_54_0" index="0" speed="10.00" length="53.51" shape="2244.47,3454.46 2253.63,3462.53 2266.84,3474.98 2278.42,3486.50 2282.72,3491.79"/>
    </edge>
    <edge id=":antrim_55" function="internal">
        <lane id=":antrim_55_0" index="0" speed="6.66" length="19.57" shape="2244.47,3454.46 2247.90,3459.44 2248.21,3463.17 2245.41,3465.66 2239.50,3466.91"/>
    </edge>
    <edge id=":antrim_56" function="internal">
        <lane id=":antrim_56_0" index="0" speed="7.13" length="23.33" shape="2238.53,3469.35 2246.70,3472.26 2249.59,3472.82 2247.19,3471.04 2239.50,3466.91"/>
    </edge>
    <edge id=":antrim_57" function="internal">
        <lane id=":antrim_57_0" index="0" speed="10.00" length="41.11" shape="2238.53,3469.35 2253.33,3473.80 2260.95,3473.27 2261.40,3467.76 2254.68,3457.25"/>
    </edge>
    <edge id=":antrim_58" function="internal">
        <lane id=":antrim_58_0" index="0" speed="10.00" length="49.95" shape="2238.53,3469.35 2256.12,3474.47 2265.54,3473.48 2266.79,3466.36 2259.88,3453.12"/>
    </edge>
    <edge id=":antrim_59" function="internal">
        <lane id=":antrim_59_0" index="0" speed="10.00" length="59.91" shape="2238.53,3469.35 2256.85,3473.94 2267.26,3470.87 2269.76,3460.14 2264.35,3441.76"/>
    </edge>
    <edge id=":antrim_60" function="internal">
        <lane id=":antrim_60_0" index="0" speed="10.00" length="53.94" shape="2238.53,3469.35 2257.57,3474.75 2269.71,3473.97 2274.96,3467.00 2273.32,3453.85"/>
    </edge>
    <edge id=":antrim_61" function="internal">
        <lane id=":antrim_61_0" index="0" speed="10.00" length="58.17" shape="2238.53,3469.35 2258.26,3474.78 2271.83,3473.86 2279.26,3466.58 2280.53,3452.94"/>
    </edge>
    <edge id=":antrim_62" function="internal">
        <lane id=":antrim_62_0" index="0" speed="10.00" length="49.64" shape="2238.53,3469.35 2249.25,3474.08 2264.55,3481.48 2277.90,3488.42 2282.72,3491.79"/>
    </edge>
    <edge id=":athlone_0" function="internal">
        <lane id=":athlone_0_0" index="0" speed="5.68" length="11.83" shape="1257.50,1977.91 1256.39,1973.65 1255.11,1971.89 1253.66,1972.63 1252.03,1975.88"/>
    </edge>
    <edge id=":athlone_1" function="internal">
        <lane id=":athlone_1_0" index="0" speed="10.00" length="34.36" shape="1257.50,1977.91 1254.89,1970.69 1249.97,1964.68 1242.73,1959.87 1233.16,1956.26"/>
    </edge>
    <edge id=":athlone_2" function="internal">
        <lane id=":athlone_2_0" index="0" speed="10.00" length="51.41" shape="1257.50,1977.91 1253.11,1970.56 1243.79,1958.68 1233.30,1946.41 1225.39,1937.91"/>
    </edge>
    <edge id=":athlone_3" function="internal">
        <lane id=":athlone_3_0" index="0" speed="10.00" length="32.43" shape="1257.50,1977.91 1256.22,1972.24 1254.36,1963.81 1252.85,1954.45 1252.62,1945.94"/>
    </edge>
    <edge id=":athlone_4" function="internal">
        <lane id=":athlone_4_0" index="0" speed="10.00" length="29.45" shape="1257.50,1977.91 1256.58,1969.66 1257.03,1962.18 1258.84,1955.48 1262.01,1949.56"/>
    </edge>
    <edge id=":athlone_5" function="internal">
        <lane id=":athlone_5_0" index="0" speed="8.76" length="27.41" shape="1257.50,1977.91 1259.71,1973.69 1266.51,1972.49 1274.84,1973.62 1281.63,1976.41"/>
    </edge>
    <edge id=":athlone_6" function="internal">
        <lane id=":athlone_6_0" index="0" speed="9.79" length="38.89" shape="1257.50,1977.91 1261.07,1976.51 1270.82,1981.73 1281.95,1989.68 1289.67,1996.52"/>
    </edge>
    <edge id=":athlone_7" function="internal">
        <lane id=":athlone_7_0" index="0" speed="9.52" length="37.95" shape="1257.50,1977.91 1260.61,1976.60 1269.42,1982.68 1279.53,1991.71 1286.53,1999.28"/>
    </edge>
    <edge id=":athlone_8" function="internal">
        <lane id=":athlone_8_0" index="0" speed="9.31" length="37.27" shape="1257.50,1977.91 1260.27,1976.87 1268.30,1983.66 1277.54,1993.49 1283.92,2001.57"/>
    </edge>
    <edge id=":athlone_9" function="internal">
        <lane id=":athlone_9_0" index="0" speed="9.19" length="36.95" shape="1257.50,1977.91 1260.06,1977.06 1267.60,1984.31 1276.28,1994.64 1282.25,2003.03"/>
    </edge>
    <edge id=":athlone_10" function="internal">
        <lane id=":athlone_10_0" index="0" speed="3.66" length="3.66" shape="1252.79,1979.27 1252.61,1978.20 1252.44,1976.86 1252.26,1975.88 1252.03,1975.88"/>
    </edge>
    <edge id=":athlone_11" function="internal">
        <lane id=":athlone_11_0" index="0" speed="10.00" length="31.63" shape="1252.79,1979.27 1249.58,1970.71 1245.23,1964.02 1239.76,1959.21 1233.16,1956.26"/>
    </edge>
    <edge id=":athlone_12" function="internal">
        <lane id=":athlone_12_0" index="0" speed="10.00" length="49.97" shape="1252.79,1979.27 1247.82,1967.69 1240.27,1955.79 1232.13,1945.29 1225.39,1937.91"/>
    </edge>
    <edge id=":athlone_13" function="internal">
        <lane id=":athlone_13_0" index="0" speed="10.00" length="32.99" shape="1252.79,1979.27 1250.93,1969.36 1250.83,1960.92 1251.68,1953.32 1252.62,1945.94"/>
        <lane id=":athlone_13_1" index="1" speed="10.00" length="32.99" shape="1255.85,1978.34 1254.01,1968.63 1253.96,1960.61 1254.84,1953.43 1255.80,1946.25"/>
    </edge>
    <edge id=":athlone_15" function="internal">
        <lane id=":athlone_15_0" index="0" speed="10.00" length="30.41" shape="1255.85,1978.34 1254.75,1971.21 1255.41,1964.03 1257.83,1956.81 1262.01,1949.56"/>
    </edge>
    <edge id=":athlone_16" function="internal">
        <lane id=":athlone_16_0" index="0" speed="8.87" length="29.41" shape="1255.85,1978.34 1257.90,1973.86 1265.20,1972.45 1274.27,1973.51 1281.63,1976.41"/>
    </edge>
    <edge id=":athlone_17" function="internal">
        <lane id=":athlone_17_0" index="0" speed="9.94" length="41.67" shape="1255.85,1978.34 1259.68,1976.30 1270.86,1980.67 1283.59,1987.89 1292.08,1994.41"/>
        <lane id=":athlone_17_1" index="1" speed="9.51" length="37.97" shape="1258.95,1977.53 1261.93,1976.01 1271.22,1981.38 1282.05,1989.56 1289.67,1996.52"/>
    </edge>
    <edge id=":athlone_19" function="internal">
        <lane id=":athlone_19_0" index="0" speed="9.23" length="36.90" shape="1258.95,1977.53 1261.50,1976.31 1269.85,1982.52 1279.65,1991.67 1286.53,1999.28"/>
    </edge>
    <edge id=":athlone_20" function="internal">
        <lane id=":athlone_20_0" index="0" speed="9.03" length="36.24" shape="1258.95,1977.53 1261.17,1976.62 1268.74,1983.53 1277.66,1993.45 1283.92,2001.57"/>
    </edge>
    <edge id=":athlone_21" function="internal">
        <lane id=":athlone_21_0" index="0" speed="8.93" length="35.97" shape="1258.95,1977.53 1260.95,1976.82 1268.03,1984.19 1276.39,1994.60 1282.25,2003.03"/>
    </edge>
    <edge id=":athlone_22" function="internal">
        <lane id=":athlone_22_0" index="0" speed="10.00" length="43.92" shape="1279.49,2004.65 1269.08,1987.87 1261.03,1977.48 1255.35,1973.48 1252.03,1975.88"/>
    </edge>
    <edge id=":athlone_23" function="internal">
        <lane id=":athlone_23_0" index="0" speed="10.00" length="67.09" shape="1279.49,2004.65 1271.87,1995.45 1257.19,1979.34 1242.08,1963.78 1233.16,1956.26"/>
    </edge>
    <edge id=":athlone_24" function="internal">
        <lane id=":athlone_24_0" index="0" speed="10.00" length="85.93" shape="1279.49,2004.65 1270.99,1993.38 1254.19,1972.27 1236.51,1950.67 1225.39,1937.91"/>
    </edge>
    <edge id=":athlone_25" function="internal">
        <lane id=":athlone_25_0" index="0" speed="10.00" length="64.81" shape="1279.49,2004.65 1274.10,1995.05 1264.75,1977.41 1256.06,1958.71 1252.62,1945.94"/>
    </edge>
    <edge id=":athlone_26" function="internal">
        <lane id=":athlone_26_0" index="0" speed="10.00" length="59.46" shape="1279.49,2004.65 1268.88,1984.81 1262.43,1969.01 1260.14,1957.26 1262.01,1949.56"/>
    </edge>
    <edge id=":athlone_27" function="internal">
        <lane id=":athlone_27_0" index="0" speed="9.50" length="37.94" shape="1279.49,2004.65 1274.66,1993.25 1272.71,1982.12 1274.69,1975.19 1281.63,1976.41"/>
    </edge>
    <edge id=":athlone_28" function="internal">
        <lane id=":athlone_28_0" index="0" speed="6.47" length="18.22" shape="1279.49,2004.65 1278.87,1999.97 1281.42,1996.21 1285.54,1994.62 1289.67,1996.52"/>
    </edge>
    <edge id=":athlone_29" function="internal">
        <lane id=":athlone_29_0" index="0" speed="5.40" length="12.46" shape="1279.49,2004.65 1279.13,2001.46 1280.98,1998.88 1283.85,1997.85 1286.53,1999.28"/>
    </edge>
    <edge id=":athlone_30" function="internal">
        <lane id=":athlone_30_0" index="0" speed="3.85" length="5.39" shape="1279.49,2004.65 1283.92,2001.57"/>
    </edge>
    <edge id=":athlone_31" function="internal">
        <lane id=":athlone_31_0" index="0" speed="3.65" length="4.67" shape="1279.49,2004.65 1279.58,2003.21 1280.07,2002.46 1280.96,2002.40 1282.25,2003.03"/>
    </edge>
    <edge id=":athlone_32" function="internal">
        <lane id=":athlone_32_0" index="0" speed="2.82" length="1.81" shape="1282.29,2002.86 1281.92,2002.33 1281.80,2002.19 1281.91,2002.42 1282.25,2003.03"/>
    </edge>
    <edge id=":athlone_33" function="internal">
        <lane id=":athlone_33_0" index="0" speed="10.00" length="44.71" shape="1282.29,2002.86 1270.69,1986.77 1261.78,1976.91 1255.56,1973.28 1252.03,1975.88"/>
    </edge>
    <edge id=":athlone_34" function="internal">
        <lane id=":athlone_34_0" index="0" speed="10.00" length="67.80" shape="1282.29,2002.86 1274.11,1994.02 1258.48,1978.51 1242.48,1963.53 1233.16,1956.26"/>
    </edge>
    <edge id=":athlone_35" function="internal">
        <lane id=":athlone_35_0" index="0" speed="10.00" length="86.36" shape="1282.29,2002.86 1273.23,1991.95 1255.48,1971.45 1236.91,1950.42 1225.39,1937.91"/>
    </edge>
    <edge id=":athlone_36" function="internal">
        <lane id=":athlone_36_0" index="0" speed="10.00" length="62.79" shape="1282.29,2002.86 1276.84,1993.67 1267.64,1976.73 1259.15,1958.71 1255.80,1946.25"/>
    </edge>
    <edge id=":athlone_37" function="internal">
        <lane id=":athlone_37_0" index="0" speed="10.00" length="58.90" shape="1282.29,2002.86 1270.44,1983.83 1263.11,1968.60 1260.30,1957.17 1262.01,1949.56"/>
    </edge>
    <edge id=":athlone_38" function="internal">
        <lane id=":athlone_38_0" index="0" speed="8.40" length="30.04" shape="1282.29,2002.86 1279.08,1994.95 1277.37,1985.04 1277.96,1977.43 1281.63,1976.41"/>
    </edge>
    <edge id=":athlone_39" function="internal">
        <lane id=":athlone_39_0" index="0" speed="5.24" length="11.50" shape="1282.29,2002.86 1282.38,2000.40 1284.49,1997.77 1287.36,1996.11 1289.67,1996.52"/>
    </edge>
    <edge id=":athlone_40" function="internal">
        <lane id=":athlone_40_0" index="0" speed="3.90" length="5.56" shape="1282.29,2002.86 1286.53,1999.28"/>
    </edge>
    <edge id=":athlone_41" function="internal">
        <lane id=":athlone_41_0" index="0" speed="10.00" length="90.34" shape="1282.29,2002.86 1301.30,2030.84 1307.91,2039.95 1302.12,2030.19 1283.92,2001.57"/>
    </edge>
    <edge id=":athlone_42" function="internal">
        <lane id=":athlone_42_0" index="0" speed="10.00" length="41.73" shape="1278.63,2005.19 1268.09,1989.50 1260.14,1979.39 1254.79,1974.85 1252.03,1975.88"/>
    </edge>
    <edge id=":athlone_43" function="internal">
        <lane id=":athlone_43_0" index="0" speed="10.00" length="66.93" shape="1278.63,2005.19 1269.93,1994.18 1255.68,1978.08 1241.54,1963.29 1233.16,1956.26"/>
    </edge>
    <edge id=":athlone_44" function="internal">
        <lane id=":athlone_44_0" index="0" speed="10.00" length="86.30" shape="1278.63,2005.19 1269.39,1991.75 1253.79,1969.86 1237.86,1948.25 1227.62,1935.62"/>
    </edge>
    <edge id=":athlone_45" function="internal">
        <lane id=":athlone_45_0" index="0" speed="10.00" length="63.51" shape="1278.63,2005.19 1272.66,1993.83 1264.84,1976.29 1258.21,1958.47 1255.80,1946.25"/>
    </edge>
    <edge id=":athlone_46" function="internal">
        <lane id=":athlone_46_0" index="0" speed="10.00" length="59.07" shape="1281.33,2003.47 1269.91,1984.16 1262.87,1968.74 1260.24,1957.20 1262.01,1949.56"/>
    </edge>
    <edge id=":athlone_47" function="internal">
        <lane id=":athlone_47_0" index="0" speed="8.52" length="30.65" shape="1281.33,2003.47 1278.32,1995.39 1276.92,1985.27 1277.81,1977.48 1281.63,1976.41"/>
    </edge>
    <edge id=":athlone_48" function="internal">
        <lane id=":athlone_48_0" index="0" speed="5.50" length="12.82" shape="1281.33,2003.47 1281.48,2000.72 1283.87,1997.84 1287.08,1996.04 1289.67,1996.52"/>
    </edge>
    <edge id=":athlone_49" function="internal">
        <lane id=":athlone_49_0" index="0" speed="4.46" length="7.91" shape="1281.33,2003.47 1281.45,2001.77 1282.98,2000.00 1284.99,1998.91 1286.53,1999.28"/>
    </edge>
    <edge id=":athlone_50" function="internal">
        <lane id=":athlone_50_0" index="0" speed="6.99" length="22.95" shape="1281.33,2003.47 1286.04,2010.70 1287.77,2013.04 1286.50,2010.48 1282.25,2003.03"/>
    </edge>
    <edge id=":athlone_51" function="internal">
        <lane id=":athlone_51_0" index="0" speed="3.65" length="4.68" shape="1281.33,2003.47 1281.27,2002.03 1281.68,2001.23 1282.56,2001.08 1283.92,2001.57"/>
    </edge>
    <edge id=":athlone_52" function="internal">
        <lane id=":athlone_52_0" index="0" speed="3.45" length="3.84" shape="1284.12,2001.39 1283.25,2000.26 1282.93,1999.91 1283.15,2000.35 1283.92,2001.57"/>
    </edge>
    <edge id=":athlone_53" function="internal">
        <lane id=":athlone_53_0" index="0" speed="6.89" length="21.64" shape="1284.12,2001.39 1279.23,1995.09 1277.28,1993.26 1278.29,1995.91 1282.25,2003.03"/>
    </edge>
    <edge id=":athlone_54" function="internal">
        <lane id=":athlone_54_0" index="0" speed="10.00" length="45.16" shape="1284.12,2001.39 1271.74,1985.88 1262.27,1976.46 1255.70,1973.13 1252.03,1975.88"/>
    </edge>
    <edge id=":athlone_55" function="internal">
        <lane id=":athlone_55_0" index="0" speed="10.00" length="68.15" shape="1284.12,2001.39 1275.58,1992.84 1259.33,1977.83 1242.74,1963.32 1233.16,1956.26"/>
    </edge>
    <edge id=":athlone_56" function="internal">
        <lane id=":athlone_56_0" index="0" speed="10.00" length="86.72" shape="1284.12,2001.39 1275.04,1990.41 1257.44,1969.62 1239.05,1948.28 1227.62,1935.62"/>
    </edge>
    <edge id=":athlone_57" function="internal">
        <lane id=":athlone_57_0" index="0" speed="10.00" length="62.32" shape="1284.12,2001.39 1278.30,1992.49 1268.48,1976.05 1259.41,1958.50 1255.80,1946.25"/>
    </edge>
    <edge id=":athlone_58" function="internal">
        <lane id=":athlone_58_0" index="0" speed="10.00" length="58.37" shape="1284.12,2001.39 1271.46,1983.02 1263.55,1968.25 1260.40,1957.10 1262.01,1949.56"/>
    </edge>
    <edge id=":athlone_59" function="internal">
        <lane id=":athlone_59_0" index="0" speed="8.79" length="33.68" shape="1284.12,2001.39 1278.59,1991.67 1275.42,1981.78 1275.98,1975.44 1281.63,1976.41"/>
    </edge>
    <edge id=":athlone_60" function="internal">
        <lane id=":athlone_60_0" index="0" speed="4.99" length="10.41" shape="1284.12,2001.39 1283.57,1998.81 1284.96,1996.57 1287.31,1995.52 1289.67,1996.52"/>
    </edge>
    <edge id=":athlone_61" function="internal">
        <lane id=":athlone_61_0" index="0" speed="3.65" length="4.69" shape="1284.12,2001.39 1283.93,1999.96 1284.27,1999.13 1285.14,1998.90 1286.53,1999.28"/>
    </edge>
    <edge id=":athlone_62" function="internal">
        <lane id=":athlone_62_0" index="0" speed="5.20" length="11.48" shape="1287.27,1998.63 1284.38,1995.47 1283.29,1994.52 1284.01,1995.79 1286.53,1999.28"/>
    </edge>
    <edge id=":athlone_63" function="internal">
        <lane id=":athlone_63_0" index="0" speed="7.93" length="28.93" shape="1287.27,1998.63 1279.99,1990.85 1277.00,1988.75 1278.31,1992.32 1283.92,2001.57"/>
    </edge>
    <edge id=":athlone_64" function="internal">
        <lane id=":athlone_64_0" index="0" speed="8.61" length="33.97" shape="1287.27,1998.63 1278.75,1989.66 1275.08,1987.41 1276.24,1991.87 1282.25,2003.03"/>
    </edge>
    <edge id=":athlone_65" function="internal">
        <lane id=":athlone_65_0" index="0" speed="10.00" length="46.04" shape="1287.27,1998.63 1273.55,1984.23 1263.10,1975.64 1255.93,1972.86 1252.03,1975.88"/>
    </edge>
    <edge id=":athlone_66" function="internal">
        <lane id=":athlone_66_0" index="0" speed="10.00" length="68.78" shape="1287.27,1998.63 1278.09,1990.62 1260.78,1976.55 1243.18,1962.93 1233.16,1956.26"/>
    </edge>
    <edge id=":athlone_67" function="internal">
        <lane id=":athlone_67_0" index="0" speed="10.00" length="86.76" shape="1287.27,1998.63 1227.62,1935.62"/>
    </edge>
    <edge id=":athlone_68" function="internal">
        <lane id=":athlone_68_0" index="0" speed="10.00" length="62.12" shape="1287.27,1998.63 1272.95,1981.45 1262.94,1966.99 1257.22,1955.26 1255.80,1946.25"/>
    </edge>
    <edge id=":athlone_69" function="internal">
        <lane id=":athlone_69_0" index="0" speed="10.00" length="57.49" shape="1287.27,1998.63 1273.20,1981.50 1264.30,1967.61 1260.57,1956.96 1262.01,1949.56"/>
    </edge>
    <edge id=":athlone_70" function="internal">