<?xml version="1.0" encoding="UTF-8"?>

<!-- generated on 2025-02-19 12:40:31 by Eclipse SUMO netconvert Version 1.18.0
<configuration xmlns:xsi="http://www.w3.org/2001/XMLSchema-instance" xsi:noNamespaceSchemaLocation="http://sumo.dlr.de/xsd/netconvertConfiguration.xsd">

    <input>
        <node-files value="nod.xml"/>
        <edge-files value="edge_xmls/06909.xml"/>
    </input>

    <output>
        <output-file value="networks/06909.net.xml"/>
    </output>

</configuration>
-->

<net version="1.16" junctionCornerDetail="5" limitTurnSpeed="5.50" xmlns:xsi="http://www.w3.org/2001/XMLSchema-instance" xsi:noNamespaceSchemaLocation="http://sumo.dlr.de/xsd/net_file.xsd">

    <location netOffset="-682.00,4368.00" convBoundary="0.00,0.00,2498.00,3881.00" origBoundary="682.00,-4368.00,3180.00,-487.00" projParameter="!"/>

    <edge id=":antrim_0" function="internal">
        <lane id=":antrim_0_0" index="0" speed="10.00" length="40.57" shape="2285.47,3444.44 2286.70,3462.50 2288.40,3474.91 2290.56,3481.66 2293.19,3482.75"/>
    </edge>
    <edge id=":antrim_1" function="internal">
        <lane id=":antrim_1_0" index="0" speed="10.00" length="56.48" shape="2285.47,3444.44 2285.57,3464.82 2283.68,3480.52 2279.81,3491.53 2273.96,3497.84"/>
    </edge>
    <edge id=":antrim_2" function="internal">
        <lane id=":antrim_2_0" index="0" speed="10.00" length="50.93" shape="2285.47,3444.44 2281.92,3454.50 2273.05,3467.76 2262.55,3478.76 2254.07,3482.06"/>
    </edge>
    <edge id=":antrim_3" function="internal">
        <lane id=":antrim_3_0" index="0" speed="10.00" length="54.25" shape="2285.47,3444.44 2284.41,3460.80 2279.38,3472.98 2270.21,3478.72 2256.69,3475.74"/>
    </edge>
    <edge id=":antrim_4" function="internal">
        <lane id=":antrim_4_0" index="0" speed="10.00" length="39.47" shape="2285.47,3444.44 2281.32,3451.24 2271.28,3457.08 2259.96,3460.10 2251.96,3458.44"/>
    </edge>
    <edge id=":antrim_5" function="internal">
        <lane id=":antrim_5_0" index="0" speed="10.00" length="46.64" shape="2285.47,3444.44 2282.71,3456.67 2274.70,3463.56 2263.95,3464.19 2252.98,3457.66"/>
    </edge>
    <edge id=":antrim_6" function="internal">
        <lane id=":antrim_6_0" index="0" speed="8.97" length="32.05" shape="2285.47,3444.44 2282.22,3450.56 2274.27,3454.83 2265.28,3456.06 2258.92,3453.09"/>
    </edge>
    <edge id=":antrim_7" function="internal">
        <lane id=":antrim_7_0" index="0" speed="7.27" length="22.31" shape="2285.47,3444.44 2283.00,3448.36 2277.09,3450.38 2270.66,3450.11 2266.63,3447.18"/>
    </edge>
    <edge id=":antrim_8" function="internal">
        <lane id=":antrim_8_0" index="0" speed="7.79" length="25.92" shape="2285.47,3444.44 2283.34,3450.58 2277.86,3453.22 2271.55,3452.10 2266.90,3446.97"/>
    </edge>
    <edge id=":antrim_9" function="internal">
        <lane id=":antrim_9_0" index="0" speed="7.08" length="21.20" shape="2285.47,3444.44 2283.10,3448.09 2277.43,3449.83 2271.29,3449.39 2267.51,3446.50"/>
    </edge>
    <edge id=":antrim_10" function="internal">
        <lane id=":antrim_10_0" index="0" speed="6.31" length="17.34" shape="2285.47,3444.44 2283.93,3447.93 2280.08,3448.38 2275.87,3446.28 2273.24,3442.10"/>
    </edge>
    <edge id=":antrim_11" function="internal">
        <lane id=":antrim_11_0" index="0" speed="6.72" length="20.31" shape="2285.47,3444.44 2286.02,3452.35 2286.64,3455.25 2287.36,3453.14 2288.16,3446.01"/>
    </edge>
    <edge id=":antrim_12" function="internal">
        <lane id=":antrim_12_0" index="0" speed="3.94" length="5.77" shape="2285.47,3444.44 2283.70,3444.33 2282.77,3443.72 2282.70,3442.62 2283.48,3441.02"/>
    </edge>
    <edge id=":antrim_13" function="internal">
        <lane id=":antrim_13_0" index="0" speed="10.00" length="0.10" shape="2283.41,3441.02 2283.48,3441.02"/>
    </edge>
    <edge id=":antrim_14" function="internal">
        <lane id=":antrim_14_0" index="0" speed="10.00" length="43.25" shape="2283.41,3441.02 2286.56,3459.97 2289.24,3473.24 2291.45,3480.83 2293.19,3482.75"/>
    </edge>
    <edge id=":antrim_15" function="internal">
        <lane id=":antrim_15_0" index="0" speed="10.00" length="60.33" shape="2283.41,3441.02 2285.56,3462.23 2284.70,3478.77 2280.83,3490.64 2273.96,3497.84"/>
    </edge>
    <edge id=":antrim_16" function="internal">
        <lane id=":antrim_16_0" index="0" speed="10.00" length="52.45" shape="2283.41,3441.02 2280.57,3451.58 2272.37,3466.01 2262.36,3478.21 2254.07,3482.06"/>
    </edge>
    <edge id=":antrim_17" function="internal">
        <lane id=":antrim_17_0" index="0" speed="10.00" length="46.20" shape="2283.41,3441.02 2280.92,3450.72 2273.52,3463.20 2264.39,3473.26 2256.69,3475.74"/>
    </edge>
    <edge id=":antrim_18" function="internal">
        <lane id=":antrim_18_0" index="0" speed="10.00" length="39.28" shape="2283.41,3441.02 2279.97,3448.31 2270.60,3455.34 2259.77,3459.55 2251.96,3458.44"/>
    </edge>
    <edge id=":antrim_19" function="internal">
        <lane id=":antrim_19_0" index="0" speed="9.54" length="35.55" shape="2280.16,3440.98 2277.37,3448.18 2269.42,3454.99 2260.05,3458.96 2252.98,3457.66"/>
    </edge>
    <edge id=":antrim_20" function="internal">
        <lane id=":antrim_20_0" index="0" speed="8.31" length="28.48" shape="2280.16,3440.98 2278.03,3447.21 2271.76,3452.56 2264.39,3455.15 2258.92,3453.09"/>
    </edge>
    <edge id=":antrim_21" function="internal">
        <lane id=":antrim_21_0" index="0" speed="6.40" length="17.50" shape="2280.16,3440.98 2278.64,3444.66 2274.40,3447.63 2269.66,3448.83 2266.63,3447.18"/>
    </edge>
    <edge id=":antrim_22" function="internal">
        <lane id=":antrim_22_0" index="0" speed="6.33" length="17.12" shape="2280.16,3440.98 2278.66,3444.57 2274.50,3447.46 2269.86,3448.60 2266.90,3446.97"/>
    </edge>
    <edge id=":antrim_23" function="internal">
        <lane id=":antrim_23_0" index="0" speed="4.88" length="9.89" shape="2280.16,3440.98 2279.46,3443.31 2277.26,3444.40 2274.79,3444.06 2273.24,3442.10"/>
    </edge>
    <edge id=":antrim_24" function="internal">
        <lane id=":antrim_24_0" index="0" speed="8.62" length="33.54" shape="2280.16,3440.98 2282.69,3454.32 2284.86,3459.60 2286.68,3456.83 2288.16,3446.01"/>
    </edge>
    <edge id=":antrim_25" function="internal">
        <lane id=":antrim_25_0" index="0" speed="6.79" length="20.16" shape="2280.16,3440.98 2279.07,3447.10 2276.60,3450.07 2272.74,3449.86 2267.51,3446.50"/>
    </edge>
    <edge id=":antrim_26" function="internal">
        <lane id=":antrim_26_0" index="0" speed="10.00" length="0.10" shape="2283.46,3441.02 2283.48,3441.02"/>
    </edge>
    <edge id=":antrim_27" function="internal">
        <lane id=":antrim_27_0" index="0" speed="10.00" length="43.23" shape="2283.46,3441.02 2286.59,3459.97 2289.25,3473.24 2291.45,3480.83 2293.19,3482.75"/>
    </edge>
    <edge id=":antrim_28" function="internal">
        <lane id=":antrim_28_0" index="0" speed="10.00" length="60.33" shape="2283.46,3441.02 2285.59,3462.23 2284.71,3478.77 2280.84,3490.64 2273.96,3497.84"/>
    </edge>
    <edge id=":antrim_29" function="internal">
        <lane id=":antrim_29_0" index="0" speed="10.00" length="52.48" shape="2283.46,3441.02 2280.61,3451.58 2272.39,3466.01 2262.36,3478.21 2254.07,3482.06"/>
    </edge>
    <edge id=":antrim_30" function="internal">
        <lane id=":antrim_30_0" index="0" speed="10.00" length="46.23" shape="2283.46,3441.02 2280.96,3450.72 2273.54,3463.20 2264.39,3473.26 2256.69,3475.74"/>
    </edge>
    <edge id=":antrim_31" function="internal">
        <lane id=":antrim_31_0" index="0" speed="10.00" length="39.32" shape="2283.46,3441.02 2280.01,3448.32 2270.62,3455.34 2259.77,3459.55 2251.96,3458.44"/>
    </edge>
    <edge id=":antrim_32" function="internal">
        <lane id=":antrim_32_0" index="0" speed="9.55" length="35.59" shape="2280.21,3440.98 2277.41,3448.18 2269.44,3454.99 2260.06,3458.96 2252.98,3457.66"/>
    </edge>
    <edge id=":antrim_33" function="internal">
        <lane id=":antrim_33_0" index="0" speed="8.32" length="28.53" shape="2280.21,3440.98 2278.07,3447.22 2271.79,3452.57 2264.40,3455.16 2258.92,3453.09"/>
    </edge>
    <edge id=":antrim_34" function="internal">
        <lane id=":antrim_34_0" index="0" speed="6.34" length="17.17" shape="2280.21,3440.98 2278.71,3444.58 2274.53,3447.47 2269.87,3448.61 2266.90,3446.97"/>
    </edge>
    <edge id=":antrim_35" function="internal">
        <lane id=":antrim_35_0" index="0" speed="6.18" length="16.30" shape="2280.21,3440.98 2278.76,3444.37 2274.76,3447.06 2270.31,3448.09 2267.51,3446.50"/>
    </edge>
    <edge id=":antrim_36" function="internal">
        <lane id=":antrim_36_0" index="0" speed="4.56" length="8.36" shape="2280.21,3440.98 2279.35,3442.46 2277.07,3443.27 2274.61,3443.22 2273.24,3442.10"/>
    </edge>
    <edge id=":antrim_37" function="internal">
        <lane id=":antrim_37_0" index="0" speed="8.61" length="33.46" shape="2280.21,3440.98 2282.72,3454.30 2284.87,3459.58 2286.69,3456.81 2288.16,3446.01"/>
    </edge>
    <edge id=":antrim_38" function="internal">
        <lane id=":antrim_38_0" index="0" speed="7.07" length="21.80" shape="2280.21,3440.98 2279.14,3447.62 2276.52,3450.87 2272.35,3450.72 2266.63,3447.18"/>
    </edge>
    <edge id=":antrim_39" function="internal">
        <lane id=":antrim_39_0" index="0" speed="7.71" length="27.32" shape="2279.40,3440.97 2281.38,3451.03 2282.72,3454.40 2283.42,3451.06 2283.48,3441.02"/>
    </edge>
    <edge id=":antrim_40" function="internal">
        <lane id=":antrim_40_0" index="0" speed="10.00" length="45.43" shape="2279.40,3440.97 2283.18,3460.62 2286.74,3474.14 2290.07,3481.51 2293.19,3482.75"/>
    </edge>
    <edge id=":antrim_41" function="internal">
        <lane id=":antrim_41_0" index="0" speed="10.00" length="59.38" shape="2279.40,3440.97 2282.20,3462.85 2282.22,3479.62 2279.47,3491.28 2273.96,3497.84"/>
    </edge>
    <edge id=":antrim_42" function="internal">
        <lane id=":antrim_42_0" index="0" speed="10.00" length="57.61" shape="2279.40,3440.97 2280.70,3458.60 2277.69,3472.61 2269.48,3480.33 2255.20,3479.07"/>
    </edge>
    <edge id=":antrim_43" function="internal">
        <lane id=":antrim_43_0" index="0" speed="10.00" length="53.74" shape="2279.40,3440.97 2280.38,3457.48 2277.20,3470.84 2269.44,3477.95 2256.69,3475.74"/>
    </edge>
    <edge id=":antrim_44" function="internal">
        <lane id=":antrim_44_0" index="0" speed="9.64" length="36.13" shape="2279.40,3440.97 2276.65,3448.26 2268.65,3455.30 2259.16,3459.54 2251.96,3458.44"/>
    </edge>
    <edge id=":antrim_45" function="internal">
        <lane id=":antrim_45_0" index="0" speed="9.44" length="34.99" shape="2279.40,3440.97 2276.78,3448.17 2269.09,3454.98 2259.95,3458.96 2252.98,3457.66"/>
    </edge>
    <edge id=":antrim_46" function="internal">
        <lane id=":antrim_46_0" index="0" speed="8.18" length="27.74" shape="2279.40,3440.97 2277.41,3447.08 2271.37,3452.40 2264.23,3455.04 2258.92,3453.09"/>
    </edge>
    <edge id=":antrim_47" function="internal">
        <lane id=":antrim_47_0" index="0" speed="6.25" length="16.70" shape="2279.40,3440.97 2278.00,3444.52 2274.01,3447.46 2269.51,3448.70 2266.63,3447.18"/>
    </edge>
    <edge id=":antrim_48" function="internal">
        <lane id=":antrim_48_0" index="0" speed="6.18" length="16.32" shape="2279.40,3440.97 2278.03,3444.43 2274.10,3447.28 2269.70,3448.48 2266.90,3446.97"/>
    </edge>
    <edge id=":antrim_49" function="internal">
        <lane id=":antrim_49_0" index="0" speed="6.01" length="15.44" shape="2279.40,3440.97 2278.08,3444.23 2274.34,3446.88 2270.15,3447.96 2267.51,3446.50"/>
    </edge>
    <edge id=":antrim_50" function="internal">
        <lane id=":antrim_50_0" index="0" speed="8.77" length="34.55" shape="2279.40,3440.97 2282.23,3454.62 2284.63,3460.00 2286.61,3457.13 2288.16,3446.01"/>
    </edge>
    <edge id=":antrim_51" function="internal">
        <lane id=":antrim_51_0" index="0" speed="4.72" length="9.15" shape="2279.40,3440.97 2278.29,3443.56 2276.89,3444.62 2275.20,3444.13 2273.24,3442.10"/>
    </edge>
    <edge id=":antrim_52" function="internal">
        <lane id=":antrim_52_0" index="0" speed="4.33" length="7.08" shape="2269.52,3444.95 2270.55,3447.26 2271.05,3447.91 2271.02,3446.90 2270.46,3444.24"/>
    </edge>
    <edge id=":antrim_53" function="internal">
        <lane id=":antrim_53_0" index="0" speed="10.00" length="42.59" shape="2269.52,3444.95 2276.48,3459.04 2281.91,3463.91 2285.80,3459.56 2288.16,3446.01"/>
    </edge>
    <edge id=":antrim_54" function="internal">
        <lane id=":antrim_54_0" index="0" speed="7.51" length="23.70" shape="2269.52,3444.95 2273.00,3451.96 2275.41,3453.63 2276.77,3449.96 2277.08,3440.94"/>
    </edge>
    <edge id=":antrim_55" function="internal">
        <lane id=":antrim_55_0" index="0" speed="10.00" length="46.05" shape="2269.52,3444.95 2277.47,3462.96 2284.06,3475.26 2289.30,3481.86 2293.19,3482.75"/>
    </edge>
    <edge id=":antrim_56" function="internal">
        <lane id=":antrim_56_0" index="0" speed="10.00" length="56.23" shape="2269.52,3444.95 2276.73,3465.03 2279.88,3480.54 2278.95,3491.48 2273.96,3497.84"/>
    </edge>
    <edge id=":antrim_57" function="internal">
        <lane id=":antrim_57_0" index="0" speed="10.00" length="48.49" shape="2269.52,3444.95 2273.30,3459.32 2272.52,3471.86 2266.66,3479.48 2255.20,3479.07"/>
    </edge>
    <edge id=":antrim_58" function="internal">
        <lane id=":antrim_58_0" index="0" speed="10.00" length="44.20" shape="2269.52,3444.95 2272.82,3458.18 2271.94,3469.94 2266.64,3476.91 2256.69,3475.74"/>
    </edge>
    <edge id=":antrim_59" function="internal">
        <lane id=":antrim_59_0" index="0" speed="7.88" length="25.87" shape="2269.52,3444.95 2268.72,3450.66 2263.79,3456.17 2257.35,3459.45 2251.96,3458.44"/>
    </edge>
    <edge id=":antrim_60" function="internal">
        <lane id=":antrim_60_0" index="0" speed="7.63" length="24.39" shape="2269.52,3444.95 2268.74,3450.35 2264.08,3455.57 2258.00,3458.67 2252.98,3457.66"/>
    </edge>
    <edge id=":antrim_61" function="internal">
        <lane id=":antrim_61_0" index="0" speed="6.07" length="15.73" shape="2269.52,3444.95 2268.94,3448.48 2265.82,3451.94 2261.90,3453.94 2258.92,3453.09"/>
    </edge>
    <edge id=":antrim_62" function="internal">
        <lane id=":antrim_62_0" index="0" speed="3.37" length="3.65" shape="2269.52,3444.95 2266.63,3447.18"/>
    </edge>
    <edge id=":antrim_63" function="internal">
        <lane id=":antrim_63_0" index="0" speed="10.00" length="151.18" shape="2269.52,3444.95 2247.79,3392.78 2240.21,3375.65 2246.79,3393.56 2267.51,3446.50"/>
    </edge>
    <edge id=":antrim_64" function="internal">
        <lane id=":antrim_64_0" index="0" speed="3.69" length="4.84" shape="2269.52,3444.95 2269.62,3446.44 2269.22,3447.28 2268.31,3447.45 2266.90,3446.97"/>
    </edge>
    <edge id=":antrim_65" function="internal">
        <lane id=":antrim_65_0" index="0" speed="4.48" length="8.04" shape="2259.31,3452.80 2257.41,3450.46 2256.72,3449.73 2257.22,3450.61 2258.92,3453.09"/>
    </edge>
    <edge id=":antrim_66" function="internal">
        <lane id=":antrim_66_0" index="0" speed="7.20" length="22.51" shape="2259.31,3452.80 2264.58,3458.84 2267.12,3460.25 2266.93,3457.04 2264.01,3449.19"/>
    </edge>
    <edge id=":antrim_67" function="internal">
        <lane id=":antrim_67_0" index="0" speed="7.31" length="23.20" shape="2259.31,3452.80 2264.73,3459.00 2267.36,3460.43 2267.21,3457.10 2264.27,3448.99"/>
    </edge>
    <edge id=":antrim_68" function="internal">
        <lane id=":antrim_68_0" index="0" speed="9.05" length="36.41" shape="2259.31,3452.80 2267.79,3462.44 2271.99,3464.61 2271.89,3459.30 2267.51,3446.50"/>
    </edge>
    <edge id=":antrim_69" function="internal">
        <lane id=":antrim_69_0" index="0" speed="9.07" length="34.58" shape="2259.31,3452.80 2267.05,3461.14 2271.49,3462.49 2272.63,3456.86 2270.46,3444.24"/>
    </edge>
    <edge id=":antrim_70" function="internal">
        <lane id=":antrim_70_0" index="0" speed="10.00" length="49.01" shape="2259.31,3452.80 2270.65,3464.40 2279.24,3467.13 2285.08,3461.00 2288.16,3446.01"/>
    </edge>
    <edge id=":antrim_71" function="internal">
        <lane id=":antrim_71_0" index="0" speed="9.94" length="38.28" shape="2259.31,3452.80 2267.34,3460.77 2272.97,3461.45 2276.22,3454.84 2277.08,3440.94"/>
    </edge>
    <edge id=":antrim_72" function="internal">
        <lane id=":antrim_72_0" index="0" speed="10.00" length="46.49" shape="2259.31,3452.80 2271.58,3467.46 2281.31,3477.34 2288.52,3482.44 2293.19,3482.75"/>
    </edge>
    <edge id=":antrim_73" function="internal">
        <lane id=":antrim_73_0" index="0" speed="10.00" length="47.99" shape="2259.31,3452.80 2264.50,3462.44 2270.23,3477.05 2274.16,3490.79 2273.96,3497.84"/>
    </edge>
    <edge id=":antrim_74" function="internal">
        <lane id=":antrim_74_0" index="0" speed="8.73" length="30.58" shape="2259.31,3452.80 2262.16,3460.27 2262.43,3469.71 2260.12,3477.26 2255.20,3479.07"/>
    </edge>
    <edge id=":antrim_75" function="internal">
        <lane id=":antrim_75_0" index="0" speed="7.99" length="26.56" shape="2259.31,3452.80 2261.88,3459.42 2262.36,3467.85 2260.66,3474.48 2256.69,3475.74"/>
    </edge>
    <edge id=":antrim_76" function="internal">
        <lane id=":antrim_76_0" index="0" speed="4.81" length="9.43" shape="2259.31,3452.80 2259.28,3454.70 2257.46,3456.72 2254.99,3457.99 2252.98,3457.66"/>
    </edge>
    <edge id=":antrim_77" function="internal">
        <lane id=":antrim_77_0" index="0" speed="5.61" length="13.53" shape="2259.31,3452.80 2259.59,3456.96 2258.46,3459.29 2255.91,3459.78 2251.96,3458.44"/>
    </edge>
    <edge id=":antrim_78" function="internal">
        <lane id=":antrim_78_0" index="0" speed="5.13" length="11.12" shape="2258.10,3453.73 2260.84,3456.85 2261.89,3457.78 2261.25,3456.53 2258.92,3453.09"/>
    </edge>
    <edge id=":antrim_79" function="internal">
        <lane id=":antrim_79_0" index="0" speed="7.67" length="25.47" shape="2258.10,3453.73 2264.28,3460.28 2267.33,3461.71 2267.24,3458.01 2264.01,3449.19"/>
    </edge>
    <edge id=":antrim_80" function="internal">
        <lane id=":antrim_80_0" index="0" speed="7.76" length="26.04" shape="2258.10,3453.73 2264.41,3460.40 2267.55,3461.84 2267.50,3458.03 2264.27,3448.99"/>
    </edge>
    <edge id=":antrim_81" function="internal">
        <lane id=":antrim_81_0" index="0" speed="9.28" length="37.94" shape="2258.10,3453.73 2267.26,3463.36 2271.89,3465.37 2271.97,3459.75 2267.51,3446.50"/>
    </edge>
    <edge id=":antrim_82" function="internal">
        <lane id=":antrim_82_0" index="0" speed="9.33" length="36.16" shape="2258.10,3453.73 2266.46,3462.06 2271.31,3463.26 2272.65,3457.32 2270.46,3444.24"/>
    </edge>
    <edge id=":antrim_83" function="internal">
        <lane id=":antrim_83_0" index="0" speed="10.00" length="49.88" shape="2258.10,3453.73 2269.97,3464.99 2278.93,3467.46 2285.00,3461.13 2288.16,3446.01"/>
    </edge>
    <edge id=":antrim_84" function="internal">
        <lane id=":antrim_84_0" index="0" speed="10.00" length="39.68" shape="2258.10,3453.73 2266.66,3461.60 2272.68,3462.09 2276.15,3455.21 2277.08,3440.94"/>
    </edge>
    <edge id=":antrim_85" function="internal">
        <lane id=":antrim_85_0" index="0" speed="10.00" length="46.77" shape="2258.10,3453.73 2270.88,3467.99 2280.99,3477.58 2288.42,3482.50 2293.19,3482.75"/>
    </edge>
    <edge id=":antrim_86" function="internal">
        <lane id=":antrim_86_0" index="0" speed="10.00" length="47.53" shape="2258.10,3453.73 2263.58,3463.14 2269.73,3477.43 2274.03,3490.89 2273.96,3497.84"/>
    </edge>
    <edge id=":antrim_87" function="internal">
        <lane id=":antrim_87_0" index="0" speed="8.51" length="29.34" shape="2258.10,3453.73 2261.09,3460.84 2261.70,3469.95 2259.79,3477.29 2255.20,3479.07"/>
    </edge>
    <edge id=":antrim_88" function="internal">
        <lane id=":antrim_88_0" index="0" speed="7.77" length="25.36" shape="2258.10,3453.73 2260.81,3460.00 2261.63,3468.09 2260.33,3474.50 2256.69,3475.74"/>
    </edge>
    <edge id=":antrim_89" function="internal">
        <lane id=":antrim_89_0" index="0" speed="4.74" length="9.15" shape="2258.10,3453.73 2258.10,3455.55 2256.35,3457.49 2253.94,3458.73 2251.96,3458.44"/>
    </edge>
    <edge id=":antrim_90" function="internal">
        <lane id=":antrim_90_0" index="0" speed="4.78" length="9.41" shape="2258.10,3453.73 2258.29,3456.63 2257.50,3458.25 2255.73,3458.59 2252.98,3457.66"/>
    </edge>
    <edge id=":antrim_91" function="internal">
        <lane id=":antrim_91_0" index="0" speed="6.87" length="20.45" shape="2260.03,3452.24 2264.70,3457.86 2266.92,3459.23 2266.69,3456.34 2264.01,3449.19"/>
    </edge>
    <edge id=":antrim_92" function="internal">
        <lane id=":antrim_92_0" index="0" speed="7.00" length="21.23" shape="2260.03,3452.24 2264.88,3458.06 2267.20,3459.45 2266.99,3456.43 2264.27,3448.99"/>
    </edge>
    <edge id=":antrim_93" function="internal">
        <lane id=":antrim_93_0" index="0" speed="8.90" length="35.39" shape="2260.03,3452.24 2268.09,3461.85 2272.02,3464.10 2271.83,3458.98 2267.51,3446.50"/>
    </edge>
    <edge id=":antrim_94" function="internal">
        <lane id=":antrim_94_0" index="0" speed="8.91" length="33.58" shape="2260.03,3452.24 2267.39,3460.56 2271.59,3462.00 2272.61,3456.56 2270.46,3444.24"/>
    </edge>
    <edge id=":antrim_95" function="internal">
        <lane id=":antrim_95_0" index="0" speed="10.00" length="48.51" shape="2260.03,3452.24 2271.06,3464.04 2279.43,3466.93 2285.13,3460.92 2288.16,3446.01"/>
    </edge>
    <edge id=":antrim_96" function="internal">
        <lane id=":antrim_96_0" index="0" speed="10.00" length="43.03" shape="2260.03,3452.24 2269.17,3461.88 2275.59,3463.22 2279.29,3456.25 2280.28,3440.98"/>
    </edge>
    <edge id=":antrim_97" function="internal">
        <lane id=":antrim_97_0" index="0" speed="10.00" length="46.35" shape="2260.03,3452.24 2271.99,3467.14 2281.50,3477.19 2288.57,3482.40 2293.19,3482.75"/>
    </edge>
    <edge id=":antrim_98" function="internal">
        <lane id=":antrim_98_0" index="0" speed="10.00" length="48.29" shape="2260.03,3452.24 2265.04,3462.02 2270.52,3476.82 2274.24,3490.73 2273.96,3497.84"/>
    </edge>
    <edge id=":antrim_99" function="internal">
        <lane id=":antrim_99_0" index="0" speed="8.85" length="31.18" shape="2260.03,3452.24 2262.72,3459.86 2262.75,3469.49 2260.22,3477.20 2255.20,3479.07"/>
    </edge>
    <edge id=":antrim_100" function="internal">
        <lane id=":antrim_100_0" index="0" speed="8.13" length="27.30" shape="2260.03,3452.24 2262.52,3459.08 2262.79,3467.71 2260.85,3474.48 2256.69,3475.74"/>
    </edge>
    <edge id=":antrim_101" function="internal">
        <lane id=":antrim_101_0" index="0" speed="5.35" length="12.01" shape="2260.03,3452.24 2259.98,3454.68 2257.68,3457.24 2254.54,3458.84 2251.96,3458.44"/>
    </edge>
    <edge id=":antrim_102" function="internal">
        <lane id=":antrim_102_0" index="0" speed="5.04" length="10.50" shape="2260.03,3452.24 2259.98,3454.38 2257.96,3456.63 2255.21,3458.03 2252.98,3457.66"/>
    </edge>
    <edge id=":antrim_103" function="internal">
        <lane id=":antrim_103_0" index="0" speed="2.89" length="2.04" shape="2260.03,3452.24 2260.07,3452.87 2259.90,3453.22 2259.52,3453.30 2258.92,3453.09"/>
    </edge>
    <edge id=":antrim_104" function="internal">
        <lane id=":antrim_104_0" index="0" speed="8.59" length="25.13" shape="2272.35,3495.08 2273.59,3492.88 2270.96,3489.97 2264.46,3486.37 2254.07,3482.06"/>
    </edge>
    <edge id=":antrim_105" function="internal">
        <lane id=":antrim_105_0" index="0" speed="9.56" length="29.72" shape="2272.35,3495.08 2275.24,3491.62 2273.59,3487.25 2267.41,3481.95 2256.69,3475.74"/>
    </edge>
    <edge id=":antrim_106" function="internal">
        <lane id=":antrim_106_0" index="0" speed="10.00" length="45.58" shape="2272.35,3495.08 2275.20,3490.39 2272.76,3482.72 2265.01,3472.07 2251.96,3458.44"/>
    </edge>
    <edge id=":antrim_107" function="internal">
        <lane id=":antrim_107_0" index="0" speed="10.00" length="45.73" shape="2272.35,3495.08 2275.29,3490.33 2273.04,3482.51 2265.61,3471.62 2252.98,3457.66"/>
    </edge>
    <edge id=":antrim_108" function="internal">
        <lane id=":antrim_108_0" index="0" speed="10.00" length="47.26" shape="2272.35,3495.08 2275.76,3489.98 2274.66,3481.29 2269.05,3468.99 2258.92,3453.09"/>
    </edge>
    <edge id=":antrim_109" function="internal">
        <lane id=":antrim_109_0" index="0" speed="10.00" length="48.44" shape="2272.35,3495.08 2275.14,3490.28 2274.68,3481.04 2270.97,3467.34 2264.01,3449.19"/>
    </edge>
    <edge id=":antrim_110" function="internal">
        <lane id=":antrim_110_0" index="0" speed="10.00" length="48.57" shape="2272.35,3495.08 2275.16,3490.27 2274.75,3480.99 2271.12,3467.23 2264.27,3448.99"/>
    </edge>
    <edge id=":antrim_111" function="internal">
        <lane id=":antrim_111_0" index="0" speed="10.00" length="51.32" shape="2272.35,3495.08 2276.42,3489.50 2276.97,3479.55 2274.00,3465.21 2267.51,3446.50"/>
    </edge>
    <edge id=":antrim_112" function="internal">
        <lane id=":antrim_112_0" index="0" speed="10.00" length="55.06" shape="2272.35,3495.08 2276.84,3489.19 2278.48,3478.40 2277.28,3462.70 2273.24,3442.10"/>
    </edge>
    <edge id=":antrim_113" function="internal">
        <lane id=":antrim_113_0" index="0" speed="10.00" length="52.82" shape="2272.35,3495.08 2277.89,3489.37 2282.37,3479.29 2285.79,3464.83 2288.16,3446.01"/>
    </edge>
    <edge id=":antrim_114" function="internal">
        <lane id=":antrim_114_0" index="0" speed="10.00" length="55.69" shape="2272.35,3495.08 2276.17,3489.77 2278.77,3478.98 2280.14,3462.72 2280.28,3440.98"/>
    </edge>
    <edge id=":antrim_115" function="internal">
        <lane id=":antrim_115_0" index="0" speed="10.00" length="24.21" shape="2272.35,3495.08 2293.19,3482.75"/>
    </edge>
    <edge id=":antrim_116" function="internal">
        <lane id=":antrim_116_0" index="0" speed="3.65" length="4.67" shape="2272.35,3495.08 2273.79,3495.17 2274.54,3495.66 2274.59,3496.55 2273.96,3497.84"/>
    </edge>
    <edge id=":athlone_0" function="internal">
        <lane id=":athlone_0_0" index="0" speed="8.76" length="22.73" shape="1255.30,1979.51 1254.06,1972.98 1251.12,1969.36 1246.47,1968.65 1240.13,1970.85"/>
    </edge>
    <edge id=":athlone_1" function="internal">
        <lane id=":athlone_1_0" index="0" speed="10.00" length="21.71" shape="1255.30,1979.51 1254.35,1973.24 1252.17,1968.34 1248.77,1964.82 1244.14,1962.66"/>
    </edge>
    <edge id=":athlone_2" function="internal">
        <lane id=":athlone_2_0" index="0" speed="10.00" length="25.61" shape="1255.30,1979.51 1254.53,1974.11 1252.80,1966.82 1250.45,1959.82 1247.80,1955.26"/>
    </edge>
    <edge id=":athlone_3" function="internal">
        <lane id=":athlone_3_0" index="0" speed="10.00" length="46.09" shape="1255.30,1979.51 1257.47,1971.30 1262.70,1957.82 1268.55,1944.53 1272.57,1936.91"/>
    </edge>
    <edge id=":athlone_4" function="internal">
        <lane id=":athlone_4_0" index="0" speed="9.71" length="26.80" shape="1255.30,1979.51 1255.64,1971.45 1257.83,1965.63 1262.29,1962.68 1269.43,1963.22"/>
    </edge>
    <edge id=":athlone_5" function="internal">
        <lane id=":athlone_5_0" index="0" speed="9.23" length="33.64" shape="1255.30,1979.51 1257.51,1973.46 1263.66,1974.72 1271.52,1980.74 1278.85,1988.96"/>
    </edge>
    <edge id=":athlone_6" function="internal">
        <lane id=":athlone_6_0" index="0" speed="8.67" length="30.90" shape="1255.30,1979.51 1257.26,1974.33 1262.67,1976.33 1269.41,1982.83 1275.36,1991.16"/>
    </edge>
    <edge id=":athlone_7" function="internal">
        <lane id=":athlone_7_0" index="0" speed="5.00" length="10.03" shape="1255.30,1979.51 1256.20,1977.37 1258.45,1976.84 1260.91,1977.79 1262.47,1980.07"/>
    </edge>
    <edge id=":athlone_8" function="internal">
        <lane id=":athlone_8_0" index="0" speed="4.68" length="8.73" shape="1255.30,1979.51 1257.11,1977.51 1258.69,1976.99 1260.06,1977.95 1261.21,1980.39"/>
    </edge>
    <edge id=":athlone_9" function="internal">
        <lane id=":athlone_9_0" index="0" speed="10.00" length="26.46" shape="1259.84,1980.73 1256.79,1973.58 1252.48,1969.55 1246.93,1968.64 1240.13,1970.85"/>
    </edge>
    <edge id=":athlone_10" function="internal">
        <lane id=":athlone_10_0" index="0" speed="10.00" length="25.05" shape="1259.84,1980.73 1257.31,1974.04 1253.85,1968.80 1249.46,1965.01 1244.14,1962.66"/>
    </edge>
    <edge id=":athlone_11" function="internal">
        <lane id=":athlone_11_0" index="0" speed="10.00" length="28.28" shape="1259.84,1980.73 1257.90,1975.21 1254.66,1967.50 1251.01,1960.03 1247.80,1955.26"/>
    </edge>
    <edge id=":athlone_12" function="internal">
        <lane id=":athlone_12_0" index="0" speed="10.00" length="47.28" shape="1259.84,1980.73 1258.54,1970.47 1260.23,1959.74 1264.90,1948.55 1272.57,1936.91"/>
    </edge>
    <edge id=":athlone_13" function="internal">
        <lane id=":athlone_13_0" index="0" speed="8.41" length="22.44" shape="1259.84,1980.73 1259.69,1975.03 1261.57,1968.88 1264.98,1964.27 1269.43,1963.22"/>
    </edge>
    <edge id=":athlone_14" function="internal">
        <lane id=":athlone_14_0" index="0" speed="7.46" length="23.42" shape="1259.84,1980.73 1261.45,1978.44 1267.10,1980.28 1273.87,1984.41 1278.85,1988.96"/>
    </edge>
    <edge id=":athlone_15" function="internal">
        <lane id=":athlone_15_0" index="0" speed="10.00" length="111.67" shape="1259.84,1980.73 1271.25,2021.02 1275.50,2034.34 1272.57,2020.69 1262.47,1980.07"/>
    </edge>
    <edge id=":athlone_16" function="internal">