<?xml version="1.0" encoding="UTF-8"?>

<!-- generated on 2025-02-19 12:40:54 by Eclipse SUMO netconvert Version 1.18.0
<configuration xmlns:xsi="http://www.w3.org/2001/XMLSchema-instance" xsi:noNamespaceSchemaLocation="http://sumo.dlr.de/xsd/netconvertConfiguration.xsd">

    <input>
        <node-files value="nod.xml"/>
        <edge-files value="edge_xmls/06929.xml"/>
    </input>

    <output>
        <output-file value="networks/06929.net.xml"/>
    </output>

</configuration>
-->

<net version="1.16" junctionCornerDetail="5" limitTurnSpeed="5.50" xmlns:xsi="http://www.w3.org/2001/XMLSchema-instance" xsi:noNamespaceSchemaLocation="http://sumo.dlr.de/xsd/net_file.xsd">

    <location netOffset="-682.00,4368.00" convBoundary="0.00,0.00,2498.00,3881.00" origBoundary="682.00,-4368.00,3180.00,-487.00" projParameter="!"/>

    <edge id=":antrim_0" function="internal">
        <lane id=":antrim_0_0" index="0" speed="10.00" length="79.61" shape="2287.56,3446.62 2282.48,3418.03 2279.06,3409.03 2277.32,3419.64 2277.25,3449.84"/>
    </edge>
    <edge id=":antrim_1" function="internal">
        <lane id=":antrim_1_0" index="0" speed="4.69" length="8.43" shape="2287.56,3446.62 2287.68,3447.99 2287.68,3449.85 2287.58,3452.20 2287.37,3455.04"/>
    </edge>
    <edge id=":antrim_2" function="internal">
        <lane id=":antrim_2_0" index="0" speed="10.00" length="58.34" shape="2287.56,3446.62 2287.51,3463.56 2281.83,3475.67 2270.98,3481.38 2255.37,3479.13"/>
    </edge>
    <edge id=":antrim_3" function="internal">
        <lane id=":antrim_3_0" index="0" speed="10.00" length="49.52" shape="2287.56,3446.62 2286.47,3460.51 2279.77,3470.10 2269.41,3473.45 2257.35,3468.61"/>
    </edge>
    <edge id=":antrim_4" function="internal">
        <lane id=":antrim_4_0" index="0" speed="9.85" length="37.50" shape="2287.56,3446.62 2284.58,3454.11 2276.24,3461.57 2266.43,3466.23 2259.10,3465.31"/>
    </edge>
    <edge id=":antrim_5" function="internal">
        <lane id=":antrim_5_0" index="0" speed="8.96" length="32.15" shape="2284.47,3447.58 2281.95,3454.23 2274.66,3459.79 2266.03,3462.43 2259.51,3460.33"/>
    </edge>
    <edge id=":antrim_6" function="internal">
        <lane id=":antrim_6_0" index="0" speed="8.84" length="32.71" shape="2284.47,3447.58 2282.95,3456.16 2277.08,3461.42 2269.44,3462.16 2262.62,3457.17"/>
    </edge>
    <edge id=":antrim_7" function="internal">
        <lane id=":antrim_7_0" index="0" speed="7.84" length="25.80" shape="2284.47,3447.58 2282.31,3452.88 2276.16,3456.96 2269.09,3458.50 2264.15,3456.17"/>
    </edge>
    <edge id=":antrim_8" function="internal">
        <lane id=":antrim_8_0" index="0" speed="6.67" length="19.20" shape="2284.47,3447.58 2282.71,3451.40 2277.87,3454.17 2272.48,3454.99 2269.07,3452.96"/>
    </edge>
    <edge id=":antrim_9" function="internal">
        <lane id=":antrim_9_0" index="0" speed="5.98" length="15.07" shape="2281.38,3448.55 2280.00,3451.55 2276.20,3453.74 2271.97,3454.40 2269.31,3452.80"/>
    </edge>
    <edge id=":antrim_10" function="internal">
        <lane id=":antrim_10_0" index="0" speed="5.84" length="14.33" shape="2281.38,3448.55 2280.05,3451.38 2276.41,3453.41 2272.37,3453.99 2269.86,3452.44"/>
    </edge>
    <edge id=":antrim_11" function="internal">
        <lane id=":antrim_11_0" index="0" speed="5.53" length="13.01" shape="2281.38,3448.55 2280.55,3451.82 2277.83,3453.69 2274.67,3453.67 2272.53,3451.31"/>
    </edge>
    <edge id=":antrim_12" function="internal">
        <lane id=":antrim_12_0" index="0" speed="5.22" length="11.44" shape="2281.38,3448.55 2280.63,3451.42 2278.22,3453.07 2275.44,3453.06 2273.62,3450.98"/>
    </edge>
    <edge id=":antrim_13" function="internal">
        <lane id=":antrim_13_0" index="0" speed="3.27" length="3.28" shape="2281.38,3448.55 2278.25,3449.53"/>
    </edge>
    <edge id=":antrim_14" function="internal">
        <lane id=":antrim_14_0" index="0" speed="3.66" length="4.73" shape="2281.38,3448.55 2280.97,3449.95 2280.32,3450.58 2279.43,3450.43 2278.29,3449.51"/>
    </edge>
    <edge id=":antrim_15" function="internal">
        <lane id=":antrim_15_0" index="0" speed="5.48" length="12.86" shape="2279.73,3449.07 2278.34,3444.51 2277.64,3443.07 2277.61,3444.74 2278.25,3449.53"/>
    </edge>
    <edge id=":antrim_16" function="internal">
        <lane id=":antrim_16_0" index="0" speed="5.40" length="12.40" shape="2279.73,3449.07 2278.39,3444.68 2277.71,3443.29 2277.68,3444.90 2278.29,3449.51"/>
    </edge>
    <edge id=":antrim_17" function="internal">
        <lane id=":antrim_17_0" index="0" speed="5.12" length="10.40" shape="2279.73,3449.07 2278.57,3445.56 2277.77,3444.52 2277.33,3445.94 2277.25,3449.84"/>
    </edge>
    <edge id=":antrim_18" function="internal">
        <lane id=":antrim_18_0" index="0" speed="7.12" length="21.17" shape="2279.73,3449.07 2282.54,3457.72 2284.75,3461.60 2286.36,3460.71 2287.37,3455.04"/>
    </edge>
    <edge id=":antrim_19" function="internal">
        <lane id=":antrim_19_0" index="0" speed="10.00" length="41.40" shape="2279.73,3449.07 2278.11,3457.82 2271.57,3468.49 2263.03,3476.96 2255.37,3479.13"/>
    </edge>
    <edge id=":antrim_20" function="internal">
        <lane id=":antrim_20_0" index="0" speed="9.30" length="33.53" shape="2279.73,3449.07 2278.23,3456.50 2272.07,3464.10 2264.14,3469.07 2257.35,3468.61"/>
    </edge>
    <edge id=":antrim_21" function="internal">
        <lane id=":antrim_21_0" index="0" speed="8.70" length="30.47" shape="2279.73,3449.07 2278.39,3456.01 2272.67,3462.62 2265.31,3466.52 2259.10,3465.31"/>
    </edge>
    <edge id=":antrim_22" function="internal">
        <lane id=":antrim_22_0" index="0" speed="7.54" length="23.37" shape="2276.67,3450.02 2275.36,3455.06 2270.39,3459.49 2264.27,3461.77 2259.51,3460.33"/>
    </edge>
    <edge id=":antrim_23" function="internal">
        <lane id=":antrim_23_0" index="0" speed="6.64" length="18.50" shape="2276.67,3450.02 2275.49,3453.89 2271.28,3457.13 2266.25,3458.61 2262.62,3457.17"/>
    </edge>
    <edge id=":antrim_24" function="internal">
        <lane id=":antrim_24_0" index="0" speed="6.24" length="16.40" shape="2276.67,3450.02 2275.59,3453.43 2271.79,3456.27 2267.30,3457.52 2264.15,3456.17"/>
    </edge>
    <edge id=":antrim_25" function="internal">
        <lane id=":antrim_25_0" index="0" speed="5.22" length="11.46" shape="2276.67,3450.02 2276.25,3452.91 2273.99,3454.69 2271.17,3454.87 2269.07,3452.96"/>
    </edge>
    <edge id=":antrim_26" function="internal">
        <lane id=":antrim_26_0" index="0" speed="4.79" length="9.31" shape="2276.67,3450.02 2275.96,3451.86 2273.63,3453.27 2270.98,3453.75 2269.31,3452.80"/>
    </edge>
    <edge id=":antrim_27" function="internal">
        <lane id=":antrim_27_0" index="0" speed="4.62" length="8.56" shape="2276.67,3450.02 2276.01,3451.69 2273.84,3452.94 2271.39,3453.34 2269.86,3452.44"/>
    </edge>
    <edge id=":antrim_28" function="internal">
        <lane id=":antrim_28_0" index="0" speed="3.57" length="4.34" shape="2276.67,3450.02 2272.53,3451.31"/>
    </edge>
    <edge id=":antrim_29" function="internal">
        <lane id=":antrim_29_0" index="0" speed="3.65" length="4.68" shape="2276.67,3450.02 2276.27,3451.40 2275.62,3452.03 2274.74,3451.88 2273.62,3450.98"/>
    </edge>
    <edge id=":antrim_30" function="internal">
        <lane id=":antrim_30_0" index="0" speed="3.15" length="2.74" shape="2278.64,3449.41 2278.31,3448.45 2278.14,3448.15 2278.12,3448.51 2278.25,3449.53"/>
    </edge>
    <edge id=":antrim_31" function="internal">
        <lane id=":antrim_31_0" index="0" speed="3.05" length="2.44" shape="2278.64,3449.41 2278.35,3448.56 2278.19,3448.29 2278.18,3448.61 2278.29,3449.51"/>
    </edge>
    <edge id=":antrim_32" function="internal">
        <lane id=":antrim_32_0" index="0" speed="3.95" length="5.30" shape="2278.64,3449.41 2277.99,3447.65 2277.55,3447.14 2277.30,3447.87 2277.25,3449.84"/>
    </edge>
    <edge id=":antrim_33" function="internal">
        <lane id=":antrim_33_0" index="0" speed="7.38" length="22.65" shape="2278.64,3449.41 2281.89,3458.39 2284.42,3462.33 2286.25,3461.21 2287.37,3455.04"/>
    </edge>
    <edge id=":antrim_34" function="internal">
        <lane id=":antrim_34_0" index="0" speed="10.00" length="40.55" shape="2278.64,3449.41 2277.29,3458.07 2271.12,3468.63 2262.89,3477.01 2255.37,3479.13"/>
    </edge>
    <edge id=":antrim_35" function="internal">
        <lane id=":antrim_35_0" index="0" speed="9.12" length="32.63" shape="2278.64,3449.41 2277.42,3456.76 2271.62,3464.24 2264.00,3469.11 2257.35,3468.61"/>
    </edge>
    <edge id=":antrim_36" function="internal">
        <lane id=":antrim_36_0" index="0" speed="8.49" length="29.28" shape="2278.64,3449.41 2277.49,3456.09 2272.08,3462.55 2265.05,3466.41 2259.10,3465.31"/>
    </edge>
    <edge id=":antrim_37" function="internal">
        <lane id=":antrim_37_0" index="0" speed="7.31" length="22.11" shape="2275.58,3450.36 2274.44,3455.13 2269.79,3459.40 2264.01,3461.65 2259.51,3460.33"/>
    </edge>
    <edge id=":antrim_38" function="internal">
        <lane id=":antrim_38_0" index="0" speed="6.40" length="17.21" shape="2275.58,3450.36 2274.56,3453.96 2270.67,3457.03 2266.00,3458.47 2262.62,3457.17"/>
    </edge>
    <edge id=":antrim_39" function="internal">
        <lane id=":antrim_39_0" index="0" speed="5.99" length="15.10" shape="2275.58,3450.36 2274.65,3453.50 2271.18,3456.17 2267.05,3457.38 2264.15,3456.17"/>
    </edge>
    <edge id=":antrim_40" function="internal">
        <lane id=":antrim_40_0" index="0" speed="4.56" length="8.30" shape="2275.58,3450.36 2274.99,3452.01 2272.93,3453.30 2270.57,3453.78 2269.07,3452.96"/>
    </edge>
    <edge id=":antrim_41" function="internal">
        <lane id=":antrim_41_0" index="0" speed="4.48" length="7.97" shape="2275.58,3450.36 2275.01,3451.94 2273.02,3453.16 2270.74,3453.60 2269.31,3452.80"/>
    </edge>
    <edge id=":antrim_42" function="internal">
        <lane id=":antrim_42_0" index="0" speed="4.31" length="7.22" shape="2275.58,3450.36 2275.05,3451.77 2273.23,3452.84 2271.15,3453.19 2269.86,3452.44"/>
    </edge>
    <edge id=":antrim_43" function="internal">
        <lane id=":antrim_43_0" index="0" speed="10.00" length="72.41" shape="2275.58,3450.36 2267.36,3424.50 2264.29,3415.98 2266.37,3424.81 2273.62,3450.98"/>
    </edge>
    <edge id=":antrim_44" function="internal">
        <lane id=":antrim_44_0" index="0" speed="3.65" length="4.67" shape="2275.58,3450.36 2275.18,3451.74 2274.53,3452.36 2273.65,3452.22 2272.53,3451.31"/>
    </edge>
    <edge id=":antrim_45" function="internal">
        <lane id=":antrim_45_0" index="0" speed="7.27" length="23.63" shape="2265.30,3455.42 2270.35,3462.42 2272.66,3464.34 2272.24,3461.18 2269.07,3452.96"/>
    </edge>
    <edge id=":antrim_46" function="internal">
        <lane id=":antrim_46_0" index="0" speed="4.51" length="7.77" shape="2265.30,3455.42 2266.96,3457.72 2267.72,3458.34 2267.60,3457.30 2266.58,3454.59"/>
    </edge>
    <edge id=":antrim_47" function="internal">
        <lane id=":antrim_47_0" index="0" speed="7.57" length="25.62" shape="2265.30,3455.42 2270.77,3462.93 2273.35,3464.94 2273.05,3461.44 2269.86,3452.44"/>
    </edge>
    <edge id=":antrim_48" function="internal">
        <lane id=":antrim_48_0" index="0" speed="8.25" length="29.96" shape="2265.30,3455.42 2271.71,3464.01 2275.06,3466.19 2275.33,3461.96 2272.53,3451.31"/>
    </edge>
    <edge id=":antrim_49" function="internal">
        <lane id=":antrim_49_0" index="0" speed="8.45" length="31.22" shape="2265.30,3455.42 2271.99,3464.30 2275.61,3466.52 2276.15,3462.08 2273.62,3450.98"/>
    </edge>
    <edge id=":antrim_50" function="internal">
        <lane id=":antrim_50_0" index="0" speed="9.20" length="35.60" shape="2265.30,3455.42 2272.86,3465.08 2277.55,3467.32 2279.34,3462.13 2278.25,3449.53"/>
    </edge>
    <edge id=":antrim_51" function="internal">
        <lane id=":antrim_51_0" index="0" speed="9.20" length="35.63" shape="2265.30,3455.42 2272.87,3465.09 2277.56,3467.32 2279.37,3462.13 2278.29,3449.51"/>
    </edge>
    <edge id=":antrim_52" function="internal">
        <lane id=":antrim_52_0" index="0" speed="9.14" length="33.18" shape="2265.30,3455.42 2272.13,3463.75 2276.93,3465.43 2279.70,3460.46 2280.43,3448.85"/>
    </edge>
    <edge id=":antrim_53" function="internal">
        <lane id=":antrim_53_0" index="0" speed="10.00" length="38.44" shape="2265.30,3455.42 2273.99,3466.25 2280.57,3469.79 2285.02,3466.06 2287.37,3455.04"/>
    </edge>
    <edge id=":antrim_54" function="internal">
        <lane id=":antrim_54_0" index="0" speed="9.39" length="34.51" shape="2265.30,3455.42 2268.99,3464.83 2268.34,3473.61 2263.68,3479.22 2255.37,3479.13"/>
    </edge>
    <edge id=":antrim_55" function="internal">
        <lane id=":antrim_55_0" index="0" speed="7.07" length="21.26" shape="2265.30,3455.42 2267.02,3461.22 2265.64,3466.65 2262.11,3469.77 2257.35,3468.61"/>
    </edge>
    <edge id=":antrim_56" function="internal">
        <lane id=":antrim_56_0" index="0" speed="5.71" length="13.68" shape="2265.30,3455.42 2265.64,3458.71 2264.06,3462.59 2261.55,3465.36 2259.10,3465.31"/>
    </edge>
    <edge id=":antrim_57" function="internal">
        <lane id=":antrim_57_0" index="0" speed="5.06" length="10.67" shape="2265.30,3455.42 2265.77,3458.12 2264.31,3460.39 2261.90,3461.41 2259.51,3460.33"/>
    </edge>
    <edge id=":antrim_58" function="internal">
        <lane id=":antrim_58_0" index="0" speed="7.86" length="29.59" shape="2265.30,3455.42 2259.03,3446.28 2256.75,3443.36 2258.46,3446.66 2264.15,3456.17"/>
    </edge>
    <edge id=":antrim_59" function="internal">
        <lane id=":antrim_59_0" index="0" speed="3.65" length="4.67" shape="2265.30,3455.42 2265.28,3456.87 2264.83,3457.64 2263.94,3457.74 2262.62,3457.17"/>
    </edge>
    <edge id=":antrim_60" function="internal">
        <lane id=":antrim_60_0" index="0" speed="10.00" length="53.35" shape="2266.08,3454.91 2253.73,3439.26 2248.85,3434.54 2251.43,3440.76 2261.47,3457.93"/>
    </edge>
    <edge id=":antrim_61" function="internal">
        <lane id=":antrim_61_0" index="0" speed="5.92" length="14.65" shape="2266.08,3454.91 2269.47,3458.99 2271.10,3460.03 2270.96,3458.02 2269.07,3452.96"/>
    </edge>
    <edge id=":antrim_62" function="internal">
        <lane id=":antrim_62_0" index="0" speed="3.06" length="2.38" shape="2266.08,3454.91 2266.63,3455.57 2266.90,3455.74 2266.88,3455.41 2266.58,3454.59"/>
    </edge>
    <edge id=":antrim_63" function="internal">
        <lane id=":antrim_63_0" index="0" speed="6.36" length="17.05" shape="2266.08,3454.91 2270.01,3459.61 2271.95,3460.77 2271.90,3458.38 2269.86,3452.44"/>
    </edge>
    <edge id=":antrim_64" function="internal">
        <lane id=":antrim_64_0" index="0" speed="7.32" length="22.62" shape="2266.08,3454.91 2271.31,3461.02 2274.12,3462.46 2274.53,3459.22 2272.53,3451.31"/>
    </edge>
    <edge id=":antrim_65" function="internal">
        <lane id=":antrim_65_0" index="0" speed="7.60" length="24.31" shape="2266.08,3454.91 2271.70,3461.43 2274.83,3462.94 2275.47,3459.46 2273.62,3450.98"/>
    </edge>
    <edge id=":antrim_66" function="internal">
        <lane id=":antrim_66_0" index="0" speed="8.60" length="30.12" shape="2266.08,3454.91 2272.97,3462.62 2277.29,3464.30 2279.05,3459.93 2278.25,3449.53"/>
    </edge>
    <edge id=":antrim_67" function="internal">
        <lane id=":antrim_67_0" index="0" speed="8.60" length="30.16" shape="2266.08,3454.91 2272.98,3462.63 2277.31,3464.30 2279.08,3459.93 2278.29,3449.51"/>
    </edge>
    <edge id=":antrim_68" function="internal">
        <lane id=":antrim_68_0" index="0" speed="9.50" length="35.13" shape="2263.40,3456.67 2271.07,3464.86 2276.47,3466.29 2279.59,3460.95 2280.43,3448.85"/>
    </edge>
    <edge id=":antrim_69" function="internal">
        <lane id=":antrim_69_0" index="0" speed="10.00" length="39.75" shape="2263.40,3456.67 2272.91,3467.09 2280.07,3470.29 2284.89,3466.28 2287.37,3455.04"/>
    </edge>
    <edge id=":antrim_70" function="internal">
        <lane id=":antrim_70_0" index="0" speed="8.35" length="27.56" shape="2263.40,3456.67 2265.22,3463.24 2263.98,3471.33 2260.44,3477.70 2255.37,3479.13"/>
    </edge>
    <edge id=":antrim_71" function="internal">
        <lane id=":antrim_71_0" index="0" speed="6.10" length="15.66" shape="2263.40,3456.67 2264.09,3460.42 2262.70,3465.00 2260.16,3468.40 2257.35,3468.61"/>
    </edge>
    <edge id=":antrim_72" function="internal">
        <lane id=":antrim_72_0" index="0" speed="5.22" length="11.32" shape="2263.40,3456.67 2263.87,3459.41 2262.85,3462.79 2261.02,3465.26 2259.10,3465.31"/>
    </edge>
    <edge id=":antrim_73" function="internal">
        <lane id=":antrim_73_0" index="0" speed="4.09" length="6.33" shape="2263.40,3456.67 2263.41,3458.03 2262.29,3459.54 2260.76,3460.53 2259.51,3460.33"/>
    </edge>
    <edge id=":antrim_74" function="internal">
        <lane id=":antrim_74_0" index="0" speed="6.00" length="16.19" shape="2263.40,3456.67 2259.67,3451.87 2258.30,3450.35 2259.28,3452.12 2262.62,3457.17"/>
    </edge>
    <edge id=":antrim_75" function="internal">
        <lane id=":antrim_75_0" index="0" speed="2.77" length="1.68" shape="2262.73,3457.10 2262.33,3456.62 2262.18,3456.46 2262.27,3456.65 2262.62,3457.17"/>
    </edge>
    <edge id=":antrim_76" function="internal">
        <lane id=":antrim_76_0" index="0" speed="5.36" length="12.21" shape="2262.73,3457.10 2259.82,3453.59 2258.64,3452.56 2259.19,3454.00 2261.47,3457.93"/>
    </edge>
    <edge id=":antrim_77" function="internal">
        <lane id=":antrim_77_0" index="0" speed="8.09" length="28.98" shape="2262.73,3457.10 2269.59,3465.00 2272.94,3466.94 2272.76,3462.92 2269.07,3452.96"/>
    </edge>
    <edge id=":antrim_78" function="internal">
        <lane id=":antrim_78_0" index="0" speed="6.38" length="17.19" shape="2262.73,3457.10 2266.80,3461.77 2268.80,3462.91 2268.72,3460.51 2266.58,3454.59"/>
    </edge>
    <edge id=":antrim_79" function="internal">
        <lane id=":antrim_79_0" index="0" speed="8.29" length="30.20" shape="2262.73,3457.10 2269.86,3465.24 2273.43,3467.17 2273.42,3462.91 2269.86,3452.44"/>
    </edge>
    <edge id=":antrim_80" function="internal">
        <lane id=":antrim_80_0" index="0" speed="8.78" length="33.17" shape="2262.73,3457.10 2270.53,3465.80 2274.77,3467.74 2275.43,3462.91 2272.53,3451.31"/>
    </edge>
    <edge id=":antrim_81" function="internal">
        <lane id=":antrim_81_0" index="0" speed="8.94" length="34.13" shape="2262.73,3457.10 2270.75,3465.97 2275.23,3467.90 2276.19,3462.90 2273.62,3450.98"/>
    </edge>
    <edge id=":antrim_82" function="internal">
        <lane id=":antrim_82_0" index="0" speed="9.62" length="37.84" shape="2262.73,3457.10 2271.48,3466.44 2276.99,3468.29 2279.25,3462.65 2278.25,3449.53"/>
    </edge>
    <edge id=":antrim_83" function="internal">
        <lane id=":antrim_83_0" index="0" speed="9.62" length="37.88" shape="2262.73,3457.10 2271.49,3466.44 2277.00,3468.29 2279.27,3462.65 2278.29,3449.51"/>
    </edge>
    <edge id=":antrim_84" function="internal">
        <lane id=":antrim_84_0" index="0" speed="9.63" length="35.80" shape="2262.73,3457.10 2270.70,3465.24 2276.30,3466.57 2279.55,3461.11 2280.43,3448.85"/>
    </edge>
    <edge id=":antrim_85" function="internal">
        <lane id=":antrim_85_0" index="0" speed="10.00" length="40.22" shape="2262.73,3457.10 2272.53,3467.38 2279.90,3470.46 2284.85,3466.35 2287.37,3455.04"/>
    </edge>
    <edge id=":antrim_86" function="internal">
        <lane id=":antrim_86_0" index="0" speed="8.84" length="31.41" shape="2262.73,3457.10 2266.66,3465.45 2266.58,3473.62 2262.74,3479.04 2255.37,3479.13"/>
    </edge>
    <edge id=":antrim_87" function="internal">
        <lane id=":antrim_87_0" index="0" speed="5.94" length="14.86" shape="2262.73,3457.10 2263.47,3460.67 2262.28,3465.08 2259.97,3468.38 2257.35,3468.61"/>
    </edge>
    <edge id=":antrim_88" function="internal">
        <lane id=":antrim_88_0" index="0" speed="5.04" length="10.51" shape="2262.73,3457.10 2263.25,3459.67 2262.42,3462.86 2260.83,3465.23 2259.10,3465.31"/>
    </edge>
    <edge id=":antrim_89" function="internal">
        <lane id=":antrim_89_0" index="0" speed="4.15" length="6.65" shape="2262.73,3457.10 2263.13,3459.12 2262.73,3460.32 2261.53,3460.73 2259.51,3460.33"/>
    </edge>
    <edge id=":antrim_90" function="internal">
        <lane id=":antrim_90_0" index="0" speed="3.99" length="5.87" shape="2259.83,3460.06 2258.27,3458.51 2257.70,3458.04 2258.11,3458.65 2259.51,3460.33"/>
    </edge>
    <edge id=":antrim_91" function="internal">
        <lane id=":antrim_91_0" index="0" speed="7.04" length="22.18" shape="2259.83,3460.06 2265.67,3465.65 2268.08,3467.03 2267.06,3464.21 2262.62,3457.17"/>
    </edge>
    <edge id=":antrim_92" function="internal">
        <lane id=":antrim_92_0" index="0" speed="5.35" length="11.69" shape="2259.83,3460.06 2262.83,3462.88 2264.11,3463.46 2263.65,3461.81 2261.47,3457.93"/>
    </edge>
    <edge id=":antrim_93" function="internal">
        <lane id=":antrim_93_0" index="0" speed="8.79" length="33.15" shape="2259.83,3460.06 2268.45,3467.81 2272.86,3469.20 2273.07,3464.25 2269.07,3452.96"/>
    </edge>
    <edge id=":antrim_94" function="internal">
        <lane id=":antrim_94_0" index="0" speed="7.61" length="24.27" shape="2259.83,3460.06 2266.09,3465.67 2269.30,3466.62 2269.46,3462.93 2266.58,3454.59"/>
    </edge>
    <edge id=":antrim_95" function="internal">
        <lane id=":antrim_95_0" index="0" speed="8.94" length="34.01" shape="2259.83,3460.06 2268.63,3467.91 2273.23,3469.25 2273.64,3464.10 2269.86,3452.44"/>
    </edge>
    <edge id=":antrim_96" function="internal">
        <lane id=":antrim_96_0" index="0" speed="9.34" length="36.25" shape="2259.83,3460.06 2269.12,3468.17 2274.34,3469.41 2275.47,3463.80 2272.53,3451.31"/>
    </edge>
    <edge id=":antrim_97" function="internal">
        <lane id=":antrim_97_0" index="0" speed="9.49" length="37.03" shape="2259.83,3460.06 2269.29,3468.25 2274.74,3469.47 2276.19,3463.71 2273.62,3450.98"/>
    </edge>
    <edge id=":antrim_98" function="internal">
        <lane id=":antrim_98_0" index="0" speed="10.00" length="40.31" shape="2259.83,3460.06 2269.92,3468.50 2276.35,3469.56 2279.13,3463.24 2278.25,3449.53"/>
    </edge>
    <edge id=":antrim_99" function="internal">
        <lane id=":antrim_99_0" index="0" speed="10.00" length="40.34" shape="2259.83,3460.06 2269.92,3468.51 2276.36,3469.56 2279.15,3463.23 2278.29,3449.51"/>
    </edge>
    <edge id=":antrim_100" function="internal">
        <lane id=":antrim_100_0" index="0" speed="10.00" length="38.72" shape="2259.83,3460.06 2269.08,3467.47 2275.60,3468.07 2279.38,3461.86 2280.43,3448.85"/>
    </edge>
    <edge id=":antrim_101" function="internal">
        <lane id=":antrim_101_0" index="0" speed="10.00" length="42.20" shape="2259.83,3460.06 2270.88,3469.25 2279.15,3471.48 2284.65,3466.74 2287.37,3455.04"/>
    </edge>
    <edge id=":antrim_102" function="internal">
        <lane id=":antrim_102_0" index="0" speed="8.03" length="26.72" shape="2259.83,3460.06 2263.78,3466.86 2264.28,3473.95 2261.44,3478.87 2255.37,3479.13"/>
    </edge>
    <edge id=":antrim_103" function="internal">
        <lane id=":antrim_103_0" index="0" speed="5.40" length="12.37" shape="2259.83,3460.06 2261.45,3463.31 2261.35,3466.80 2259.87,3469.05 2257.35,3468.61"/>
    </edge>
    <edge id=":antrim_104" function="internal">
        <lane id=":antrim_104_0" index="0" speed="4.40" length="7.74" shape="2259.83,3460.06 2261.62,3461.65 2262.09,3463.06 2261.25,3464.27 2259.10,3465.31"/>
    </edge>
    <edge id=":antrim_105" function="internal">
        <lane id=":antrim_105_0" index="0" speed="3.67" length="4.58" shape="2258.87,3465.73 2260.21,3466.75 2260.70,3467.01 2260.33,3466.54 2259.10,3465.31"/>
    </edge>
    <edge id=":antrim_106" function="internal">
        <lane id=":antrim_106_0" index="0" speed="7.05" length="22.04" shape="2258.87,3465.73 2264.79,3470.00 2266.87,3470.52 2265.11,3467.29 2259.51,3460.33"/>
    </edge>
    <edge id=":antrim_107" function="internal">
        <lane id=":antrim_107_0" index="0" speed="8.14" length="28.87" shape="2258.87,3465.73 2266.66,3471.11 2269.88,3471.48 2268.53,3466.83 2262.62,3457.17"/>
    </edge>
    <edge id=":antrim_108" function="internal">
        <lane id=":antrim_108_0" index="0" speed="7.13" length="21.29" shape="2258.87,3465.73 2264.30,3469.37 2266.54,3469.27 2265.60,3465.46 2261.47,3457.93"/>
    </edge>
    <edge id=":antrim_109" function="internal">
        <lane id=":antrim_109_0" index="0" speed="9.29" length="35.35" shape="2258.87,3465.73 2268.23,3471.76 2273.05,3471.64 2273.33,3465.37 2269.07,3452.96"/>
    </edge>
    <edge id=":antrim_110" function="internal">
        <lane id=":antrim_110_0" index="0" speed="8.40" length="28.45" shape="2258.87,3465.73 2266.18,3470.38 2269.90,3470.07 2270.04,3464.81 2266.58,3454.59"/>
    </edge>
    <edge id=":antrim_111" function="internal">
        <lane id=":antrim_111_0" index="0" speed="9.42" length="36.05" shape="2258.87,3465.73 2268.36,3471.79 2273.36,3471.60 2273.86,3465.15 2269.86,3452.44"/>
    </edge>
    <edge id=":antrim_112" function="internal">
        <lane id=":antrim_112_0" index="0" speed="9.80" length="37.91" shape="2258.87,3465.73 2268.75,3471.90 2274.32,3471.55 2275.58,3464.69 2272.53,3451.31"/>
    </edge>
    <edge id=":antrim_113" function="internal">
        <lane id=":antrim_113_0" index="0" speed="9.94" length="38.59" shape="2258.87,3465.73 2268.89,3471.93 2274.69,3471.54 2276.26,3464.55 2273.62,3450.98"/>
    </edge>
    <edge id=":antrim_114" function="internal">
        <lane id=":antrim_114_0" index="0" speed="10.00" length="41.56" shape="2258.87,3465.73 2269.43,3472.04 2276.18,3471.44 2279.12,3463.93 2278.25,3449.53"/>
    </edge>
    <edge id=":antrim_115" function="internal">
        <lane id=":antrim_115_0" index="0" speed="10.00" length="41.59" shape="2258.87,3465.73 2269.43,3472.04 2276.19,3471.44 2279.14,3463.93 2278.29,3449.51"/>
    </edge>
    <edge id=":antrim_116" function="internal">
        <lane id=":antrim_116_0" index="0" speed="10.00" length="45.28" shape="2258.87,3465.73 2269.97,3472.09 2277.79,3471.23 2282.34,3463.15 2283.61,3447.85"/>
    </edge>
    <edge id=":antrim_117" function="internal">
        <lane id=":antrim_117_0" index="0" speed="10.00" length="42.69" shape="2258.87,3465.73 2270.32,3472.64 2278.89,3473.15 2284.57,3467.29 2287.37,3455.04"/>
    </edge>
    <edge id=":antrim_118" function="internal">
        <lane id=":antrim_118_0" index="0" speed="6.24" length="16.21" shape="2258.87,3465.73 2260.47,3469.26 2260.11,3474.11 2258.25,3478.13 2255.37,3479.13"/>
    </edge>
    <edge id=":antrim_119" function="internal">
        <lane id=":antrim_119_0" index="0" speed="3.67" length="4.75" shape="2258.87,3465.73 2259.57,3467.02 2259.55,3467.93 2258.81,3468.46 2257.35,3468.61"/>
    </edge>
    <edge id=":antrim_120" function="internal">
        <lane id=":antrim_120_0" index="0" speed="2.66" length="1.32" shape="2257.24,3468.82 2257.67,3469.03 2257.84,3469.06 2257.73,3468.92 2257.35,3468.61"/>
    </edge>
    <edge id=":antrim_121" function="internal">
        <lane id=":antrim_121_0" index="0" speed="5.87" length="14.13" shape="2257.24,3468.82 2261.78,3470.88 2263.60,3470.98 2262.71,3469.12 2259.10,3465.31"/>
    </edge>
    <edge id=":antrim_122" function="internal">
        <lane id=":antrim_122_0" index="0" speed="7.34" length="22.37" shape="2257.24,3468.82 2263.71,3471.54 2266.24,3471.04 2264.85,3467.30 2259.51,3460.33"/>
    </edge>
    <edge id=":antrim_123" function="internal">
        <lane id=":antrim_123_0" index="0" speed="8.26" length="27.61" shape="2257.24,3468.82 2265.16,3472.00 2268.70,3471.11 2267.86,3466.17 2262.62,3457.17"/>
    </edge>
    <edge id=":antrim_124" function="internal">
        <lane id=":antrim_124_0" index="0" speed="7.64" length="22.87" shape="2257.24,3468.82 2263.43,3471.19 2266.20,3470.16 2265.55,3465.74 2261.47,3457.93"/>
    </edge>
    <edge id=":antrim_125" function="internal">
        <lane id=":antrim_125_0" index="0" speed="9.52" length="34.21" shape="2257.24,3468.82 2266.84,3472.39 2272.02,3470.93 2272.76,3464.46 2269.07,3452.96"/>
    </edge>
    <edge id=":antrim_126" function="internal">
        <lane id=":antrim_126_0" index="0" speed="9.56" length="34.44" shape="2257.24,3468.82 2266.89,3472.40 2272.12,3470.92 2272.93,3464.39 2269.31,3452.80"/>
    </edge>
    <edge id=":antrim_127" function="internal">
        <lane id=":antrim_127_0" index="0" speed="9.67" length="34.97" shape="2257.24,3468.82 2267.00,3472.41 2272.36,3470.88 2273.31,3464.22 2269.86,3452.44"/>
    </edge>
    <edge id=":antrim_128" function="internal">
        <lane id=":antrim_128_0" index="0" speed="10.00" length="41.85" shape="2255.74,3471.65 2267.14,3475.70 2273.73,3473.66 2275.53,3465.53 2272.53,3451.31"/>
    </edge>
    <edge id=":antrim_129" function="internal">
        <lane id=":antrim_129_0" index="0" speed="10.00" length="42.47" shape="2255.74,3471.65 2267.25,3475.70 2274.07,3473.61 2276.19,3465.36 2273.62,3450.98"/>
    </edge>
    <edge id=":antrim_130" function="internal">
        <lane id=":antrim_130_0" index="0" speed="10.00" length="45.27" shape="2255.74,3471.65 2267.72,3475.70 2275.47,3473.37 2278.98,3464.64 2278.25,3449.53"/>
    </edge>
    <edge id=":antrim_131" function="internal">
        <lane id=":antrim_131_0" index="0" speed="10.00" length="45.30" shape="2255.74,3471.65 2267.72,3475.70 2275.48,3473.36 2279.00,3464.63 2278.29,3449.51"/>
    </edge>
    <edge id=":antrim_132" function="internal">
        <lane id=":antrim_132_0" index="0" speed="10.00" length="48.88" shape="2255.74,3471.65 2268.21,3475.68 2277.01,3473.05 2282.15,3463.78 2283.61,3447.85"/>
    </edge>
    <edge id=":antrim_133" function="internal">