<?xml version="1.0" encoding="UTF-8"?>

<!-- generated on 2025-02-19 12:41:43 by Eclipse SUMO netconvert Version 1.18.0
<configuration xmlns:xsi="http://www.w3.org/2001/XMLSchema-instance" xsi:noNamespaceSchemaLocation="http://sumo.dlr.de/xsd/netconvertConfiguration.xsd">

    <input>
        <node-files value="nod.xml"/>
        <edge-files value="edge_xmls/06966.xml"/>
    </input>

    <output>
        <output-file value="networks/06966.net.xml"/>
    </output>

</configuration>
-->

<net version="1.16" junctionCornerDetail="5" limitTurnSpeed="5.50" xmlns:xsi="http://www.w3.org/2001/XMLSchema-instance" xsi:noNamespaceSchemaLocation="http://sumo.dlr.de/xsd/net_file.xsd">

    <location netOffset="-682.00,4368.00" convBoundary="0.00,0.00,2498.00,3881.00" origBoundary="682.00,-4368.00,3180.00,-487.00" projParameter="!"/>

    <edge id=":antrim_0" function="internal">
        <lane id=":antrim_0_0" index="0" speed="10.00" length="47.73" shape="2288.73,3436.39 2288.63,3457.92 2289.41,3472.78 2291.05,3480.98 2293.57,3482.52"/>
    </edge>
    <edge id=":antrim_1" function="internal">
        <lane id=":antrim_1_0" index="0" speed="10.00" length="65.84" shape="2288.73,3436.39 2287.08,3460.30 2283.28,3478.26 2277.34,3490.27 2269.25,3496.34"/>
    </edge>
    <edge id=":antrim_2" function="internal">
        <lane id=":antrim_2_0" index="0" speed="10.00" length="67.50" shape="2288.73,3436.39 2283.01,3448.13 2269.96,3465.19 2255.35,3480.27 2244.91,3486.11"/>
    </edge>
    <edge id=":antrim_3" function="internal">
        <lane id=":antrim_3_0" index="0" speed="10.00" length="61.67" shape="2288.73,3436.39 2283.23,3447.27 2270.69,3462.31 2256.63,3475.10 2246.56,3479.22"/>
    </edge>
    <edge id=":antrim_4" function="internal">
        <lane id=":antrim_4_0" index="0" speed="10.00" length="50.30" shape="2288.73,3436.39 2284.48,3446.37 2274.77,3459.27 2263.79,3469.47 2255.70,3471.38"/>
    </edge>
    <edge id=":antrim_5" function="internal">
        <lane id=":antrim_5_0" index="0" speed="10.00" length="50.05" shape="2288.73,3436.39 2284.42,3446.42 2274.63,3459.38 2263.67,3469.51 2255.86,3471.08"/>
    </edge>
    <edge id=":antrim_6" function="internal">
        <lane id=":antrim_6_0" index="0" speed="10.00" length="41.68" shape="2288.73,3436.39 2284.13,3443.93 2273.77,3451.36 2262.36,3455.85 2254.63,3454.59"/>
    </edge>
    <edge id=":antrim_7" function="internal">
        <lane id=":antrim_7_0" index="0" speed="10.00" length="40.26" shape="2288.73,3436.39 2284.30,3443.81 2274.31,3450.95 2263.33,3455.13 2255.89,3453.64"/>
    </edge>
    <edge id=":antrim_8" function="internal">
        <lane id=":antrim_8_0" index="0" speed="10.00" length="49.40" shape="2288.73,3436.39 2285.22,3450.02 2276.96,3458.75 2266.39,3460.60 2255.95,3453.59"/>
    </edge>
    <edge id=":antrim_9" function="internal">
        <lane id=":antrim_9_0" index="0" speed="10.00" length="46.11" shape="2288.73,3436.39 2285.31,3449.06 2277.37,3457.18 2267.46,3458.79 2258.12,3451.94"/>
    </edge>
    <edge id=":antrim_10" function="internal">
        <lane id=":antrim_10_0" index="0" speed="10.00" length="42.47" shape="2288.73,3436.39 2285.44,3448.00 2277.87,3455.40 2268.67,3456.74 2260.48,3450.15"/>
    </edge>
    <edge id=":antrim_11" function="internal">
        <lane id=":antrim_11_0" index="0" speed="8.70" length="32.21" shape="2288.73,3436.39 2285.89,3444.96 2279.55,3450.22 2272.37,3450.76 2267.00,3445.19"/>
    </edge>
    <edge id=":antrim_12" function="internal">
        <lane id=":antrim_12_0" index="0" speed="7.42" length="23.53" shape="2288.73,3436.39 2285.87,3440.68 2279.57,3443.13 2272.92,3443.13 2269.01,3440.08"/>
    </edge>
    <edge id=":antrim_13" function="internal">
        <lane id=":antrim_13_0" index="0" speed="7.67" length="25.58" shape="2288.73,3436.39 2285.61,3441.09 2278.73,3443.83 2271.51,3443.90 2267.36,3440.59"/>
    </edge>
    <edge id=":antrim_14" function="internal">
        <lane id=":antrim_14_0" index="0" speed="7.24" length="22.89" shape="2288.73,3436.39 2286.41,3441.89 2281.33,3444.44 2275.90,3443.61 2272.50,3438.98"/>
    </edge>
    <edge id=":antrim_15" function="internal">
        <lane id=":antrim_15_0" index="0" speed="6.49" length="18.43" shape="2288.73,3436.39 2286.80,3440.78 2282.62,3442.79 2278.23,3442.06 2275.70,3438.29"/>
    </edge>
    <edge id=":antrim_16" function="internal">
        <lane id=":antrim_16_0" index="0" speed="10.00" length="46.70" shape="2288.30,3436.45 2289.48,3457.29 2290.76,3471.91 2292.12,3480.32 2293.57,3482.52"/>
    </edge>
    <edge id=":antrim_17" function="internal">
        <lane id=":antrim_17_0" index="0" speed="10.00" length="66.55" shape="2288.30,3436.45 2288.05,3459.92 2284.79,3477.73 2278.52,3489.87 2269.25,3496.34"/>
    </edge>
    <edge id=":antrim_18" function="internal">
        <lane id=":antrim_18_0" index="0" speed="10.00" length="67.28" shape="2288.30,3436.45 2282.93,3448.19 2270.04,3465.23 2255.43,3480.29 2244.91,3486.11"/>
    </edge>
    <edge id=":antrim_19" function="internal">
        <lane id=":antrim_19_0" index="0" speed="10.00" length="61.42" shape="2288.30,3436.45 2283.12,3447.32 2270.70,3462.34 2256.65,3475.11 2246.56,3479.22"/>
    </edge>
    <edge id=":antrim_20" function="internal">
        <lane id=":antrim_20_0" index="0" speed="10.00" length="50.07" shape="2288.30,3436.45 2284.37,3446.42 2274.78,3459.30 2263.81,3469.48 2255.70,3471.38"/>
    </edge>
    <edge id=":antrim_21" function="internal">
        <lane id=":antrim_21_0" index="0" speed="10.00" length="46.78" shape="2288.30,3436.45 2284.56,3446.02 2275.44,3457.96 2265.05,3467.08 2257.47,3468.19"/>
    </edge>
    <edge id=":antrim_22" function="internal">
        <lane id=":antrim_22_0" index="0" speed="10.00" length="41.40" shape="2288.30,3436.45 2284.03,3443.98 2273.78,3451.39 2262.38,3455.86 2254.63,3454.59"/>
    </edge>
    <edge id=":antrim_23" function="internal">
        <lane id=":antrim_23_0" index="0" speed="9.75" length="37.17" shape="2285.12,3436.91 2281.50,3444.25 2272.73,3451.22 2262.85,3455.21 2255.89,3453.64"/>
    </edge>
    <edge id=":antrim_24" function="internal">
        <lane id=":antrim_24_0" index="0" speed="9.74" length="37.11" shape="2285.12,3436.91 2281.51,3444.25 2272.76,3451.20 2262.89,3455.17 2255.95,3453.59"/>
    </edge>
    <edge id=":antrim_25" function="internal">
        <lane id=":antrim_25_0" index="0" speed="10.00" length="41.79" shape="2285.12,3436.91 2282.63,3448.47 2275.61,3456.13 2266.60,3457.94 2258.12,3451.94"/>
    </edge>
    <edge id=":antrim_26" function="internal">
        <lane id=":antrim_26_0" index="0" speed="9.61" length="38.05" shape="2285.12,3436.91 2282.71,3447.39 2276.10,3454.33 2267.84,3455.86 2260.48,3450.15"/>
    </edge>
    <edge id=":antrim_27" function="internal">
        <lane id=":antrim_27_0" index="0" speed="7.98" length="27.52" shape="2285.12,3436.91 2283.08,3444.32 2277.78,3449.06 2271.62,3449.80 2267.00,3445.19"/>
    </edge>
    <edge id=":antrim_28" function="internal">
        <lane id=":antrim_28_0" index="0" speed="6.70" length="19.31" shape="2285.12,3436.91 2282.94,3440.45 2277.77,3442.50 2272.25,3442.55 2269.01,3440.08"/>
    </edge>
    <edge id=":antrim_29" function="internal">
        <lane id=":antrim_29_0" index="0" speed="6.40" length="17.90" shape="2285.12,3436.91 2283.52,3441.20 2279.55,3443.20 2275.21,3442.57 2272.50,3438.98"/>
    </edge>
    <edge id=":antrim_30" function="internal">
        <lane id=":antrim_30_0" index="0" speed="5.58" length="13.39" shape="2285.12,3436.91 2283.88,3440.09 2280.84,3441.54 2277.58,3441.01 2275.70,3438.29"/>
    </edge>
    <edge id=":antrim_31" function="internal">
        <lane id=":antrim_31_0" index="0" speed="7.05" length="21.83" shape="2285.12,3436.91 2282.46,3443.11 2279.13,3445.62 2275.12,3444.47 2270.42,3439.64"/>
    </edge>
    <edge id=":antrim_32" function="internal">
        <lane id=":antrim_32_0" index="0" speed="10.00" length="48.09" shape="2282.08,3437.36 2284.77,3458.54 2287.58,3473.13 2290.51,3481.12 2293.57,3482.52"/>
    </edge>
    <edge id=":antrim_33" function="internal">
        <lane id=":antrim_33_0" index="0" speed="10.00" length="63.78" shape="2282.08,3437.36 2283.40,3460.82 2281.70,3478.48 2276.98,3490.31 2269.25,3496.34"/>
    </edge>
    <edge id=":antrim_34" function="internal">
        <lane id=":antrim_34_0" index="0" speed="10.00" length="75.77" shape="2282.08,3437.36 2282.51,3460.15 2277.40,3476.81 2265.35,3485.92 2244.91,3486.11"/>
    </edge>
    <edge id=":antrim_35" function="internal">
        <lane id=":antrim_35_0" index="0" speed="10.00" length="69.55" shape="2282.08,3437.36 2281.91,3458.21 2276.24,3473.71 2264.60,3481.50 2246.56,3479.22"/>
    </edge>
    <edge id=":antrim_36" function="internal">
        <lane id=":antrim_36_0" index="0" speed="10.00" length="45.57" shape="2282.08,3437.36 2279.34,3447.17 2271.87,3459.74 2262.91,3469.62 2255.70,3471.38"/>
    </edge>
    <edge id=":antrim_37" function="internal">
        <lane id=":antrim_37_0" index="0" speed="10.00" length="52.30" shape="2282.08,3437.36 2281.44,3453.50 2276.57,3466.64 2268.30,3472.85 2257.47,3468.19"/>
    </edge>
    <edge id=":antrim_38" function="internal">
        <lane id=":antrim_38_0" index="0" speed="9.56" length="36.05" shape="2282.08,3437.36 2279.00,3444.73 2270.87,3451.83 2261.48,3456.00 2254.63,3454.59"/>
    </edge>
    <edge id=":antrim_39" function="internal">
        <lane id=":antrim_39_0" index="0" speed="9.31" length="34.65" shape="2282.08,3437.36 2279.17,3444.61 2271.41,3451.42 2262.45,3455.27 2255.89,3453.64"/>
    </edge>
    <edge id=":antrim_40" function="internal">
        <lane id=":antrim_40_0" index="0" speed="9.30" length="34.59" shape="2282.08,3437.36 2279.17,3444.60 2271.44,3451.40 2262.49,3455.24 2255.95,3453.59"/>
    </edge>
    <edge id=":antrim_41" function="internal">
        <lane id=":antrim_41_0" index="0" speed="9.63" length="38.16" shape="2282.08,3437.36 2280.29,3447.97 2274.07,3455.25 2265.87,3457.23 2258.12,3451.94"/>
    </edge>
    <edge id=":antrim_42" function="internal">
        <lane id=":antrim_42_0" index="0" speed="9.05" length="34.35" shape="2282.08,3437.36 2280.35,3446.88 2274.56,3453.42 2267.12,3455.12 2260.48,3450.15"/>
    </edge>
    <edge id=":antrim_43" function="internal">
        <lane id=":antrim_43_0" index="0" speed="7.35" length="23.59" shape="2282.08,3437.36 2280.64,3443.78 2276.22,3448.09 2270.96,3449.00 2267.00,3445.19"/>
    </edge>
    <edge id=":antrim_44" function="internal">
        <lane id=":antrim_44_0" index="0" speed="6.06" length="15.74" shape="2282.08,3437.36 2280.43,3440.24 2276.22,3441.97 2271.68,3442.07 2269.01,3440.08"/>
    </edge>
    <edge id=":antrim_45" function="internal">
        <lane id=":antrim_45_0" index="0" speed="5.73" length="14.03" shape="2282.08,3437.36 2280.59,3439.91 2276.81,3441.40 2272.75,3441.44 2270.42,3439.64"/>
    </edge>
    <edge id=":antrim_46" function="internal">
        <lane id=":antrim_46_0" index="0" speed="4.12" length="6.45" shape="2282.08,3437.36 2275.70,3438.29"/>
    </edge>
    <edge id=":antrim_47" function="internal">
        <lane id=":antrim_47_0" index="0" speed="5.72" length="14.19" shape="2282.08,3437.36 2280.30,3441.36 2278.11,3442.96 2275.51,3442.17 2272.50,3438.98"/>
    </edge>
    <edge id=":antrim_48" function="internal">
        <lane id=":antrim_48_0" index="0" speed="10.00" length="48.57" shape="2278.86,3437.83 2282.90,3458.84 2286.70,3473.29 2290.26,3481.18 2293.57,3482.52"/>
    </edge>
    <edge id=":antrim_49" function="internal">
        <lane id=":antrim_49_0" index="0" speed="10.00" length="63.04" shape="2278.86,3437.83 2281.62,3461.08 2280.93,3478.58 2276.81,3490.33 2269.25,3496.34"/>
    </edge>
    <edge id=":antrim_50" function="internal">
        <lane id=":antrim_50_0" index="0" speed="10.00" length="73.62" shape="2278.86,3437.83 2280.42,3459.86 2276.04,3476.37 2264.59,3485.68 2244.91,3486.11"/>
    </edge>
    <edge id=":antrim_51" function="internal">
        <lane id=":antrim_51_0" index="0" speed="10.00" length="67.08" shape="2278.86,3437.83 2279.73,3457.87 2274.79,3473.17 2263.81,3481.15 2246.56,3479.22"/>
    </edge>
    <edge id=":antrim_52" function="internal">
        <lane id=":antrim_52_0" index="0" speed="10.00" length="40.43" shape="2278.86,3437.83 2277.11,3447.09 2271.25,3458.52 2263.81,3467.29 2257.27,3468.54"/>
    </edge>
    <edge id=":antrim_53" function="internal">
        <lane id=":antrim_53_0" index="0" speed="10.00" length="49.52" shape="2278.86,3437.83 2279.08,3453.16 2275.05,3466.00 2267.57,3472.34 2257.47,3468.19"/>
    </edge>
    <edge id=":antrim_54" function="internal">
        <lane id=":antrim_54_0" index="0" speed="9.10" length="33.45" shape="2278.86,3437.83 2276.52,3445.09 2269.47,3452.03 2261.06,3456.06 2254.63,3454.59"/>
    </edge>
    <edge id=":antrim_55" function="internal">
        <lane id=":antrim_55_0" index="0" speed="8.86" length="32.07" shape="2278.86,3437.83 2276.68,3444.97 2270.01,3451.63 2262.02,3455.33 2255.89,3453.64"/>
    </edge>
    <edge id=":antrim_56" function="internal">
        <lane id=":antrim_56_0" index="0" speed="8.85" length="32.00" shape="2278.86,3437.83 2276.69,3444.97 2270.04,3451.61 2262.07,3455.30 2255.95,3453.59"/>
    </edge>
    <edge id=":antrim_57" function="internal">
        <lane id=":antrim_57_0" index="0" speed="9.05" length="34.33" shape="2278.86,3437.83 2277.74,3447.43 2272.37,3454.32 2265.06,3456.49 2258.12,3451.94"/>
    </edge>
    <edge id=":antrim_58" function="internal">
        <lane id=":antrim_58_0" index="0" speed="8.44" length="30.43" shape="2278.86,3437.83 2277.77,3446.34 2272.85,3452.47 2266.34,3454.36 2260.48,3450.15"/>
    </edge>
    <edge id=":antrim_59" function="internal">
        <lane id=":antrim_59_0" index="0" speed="6.66" length="19.45" shape="2278.86,3437.83 2277.96,3443.22 2274.49,3447.09 2270.24,3448.16 2267.00,3445.19"/>
    </edge>
    <edge id=":antrim_60" function="internal">
        <lane id=":antrim_60_0" index="0" speed="5.73" length="14.20" shape="2278.86,3437.83 2277.96,3441.27 2274.92,3443.04 2271.39,3442.76 2269.01,3440.08"/>
    </edge>
    <edge id=":antrim_61" function="internal">
        <lane id=":antrim_61_0" index="0" speed="4.97" length="10.22" shape="2278.86,3437.83 2277.86,3439.70 2275.12,3440.83 2272.14,3440.92 2270.42,3439.64"/>
    </edge>
    <edge id=":antrim_62" function="internal">
        <lane id=":antrim_62_0" index="0" speed="4.13" length="6.47" shape="2278.86,3437.83 2272.50,3438.98"/>
    </edge>
    <edge id=":antrim_63" function="internal">
        <lane id=":antrim_63_0" index="0" speed="3.65" length="4.67" shape="2278.86,3437.83 2278.25,3439.13 2277.51,3439.64 2276.66,3439.36 2275.70,3438.29"/>
    </edge>
    <edge id=":antrim_64" function="internal">
        <lane id=":antrim_64_0" index="0" speed="4.14" length="6.50" shape="2272.07,3439.12 2272.82,3441.43 2273.14,3442.18 2273.04,3441.36 2272.50,3438.98"/>
    </edge>
    <edge id=":antrim_65" function="internal">
        <lane id=":antrim_65_0" index="0" speed="7.79" length="28.13" shape="2272.07,3439.12 2275.42,3449.05 2277.14,3452.22 2277.23,3448.63 2275.70,3438.29"/>
    </edge>
    <edge id=":antrim_66" function="internal">
        <lane id=":antrim_66_0" index="0" speed="10.00" length="49.96" shape="2272.07,3439.12 2278.98,3459.63 2284.87,3473.69 2289.73,3481.33 2293.57,3482.52"/>
    </edge>
    <edge id=":antrim_67" function="internal">
        <lane id=":antrim_67_0" index="0" speed="10.00" length="61.76" shape="2272.07,3439.12 2277.86,3461.78 2279.33,3478.87 2276.45,3490.39 2269.25,3496.34"/>
    </edge>
    <edge id=":antrim_68" function="internal">
        <lane id=":antrim_68_0" index="0" speed="10.00" length="68.95" shape="2272.07,3439.12 2275.79,3459.39 2272.97,3475.51 2262.92,3485.18 2244.91,3486.11"/>
    </edge>
    <edge id=":antrim_69" function="internal">
        <lane id=":antrim_69_0" index="0" speed="10.00" length="61.75" shape="2272.07,3439.12 2274.88,3457.33 2271.53,3472.12 2262.07,3480.44 2246.56,3479.22"/>
    </edge>
    <edge id=":antrim_70" function="internal">
        <lane id=":antrim_70_0" index="0" speed="10.00" length="44.00" shape="2272.07,3439.12 2274.09,3452.67 2272.12,3464.61 2266.43,3471.16 2257.27,3468.54"/>
    </edge>
    <edge id=":antrim_71" function="internal">
        <lane id=":antrim_71_0" index="0" speed="9.35" length="35.88" shape="2272.07,3439.12 2271.81,3448.11 2268.16,3459.15 2262.82,3467.44 2257.47,3468.19"/>
    </edge>
    <edge id=":antrim_72" function="internal">
        <lane id=":antrim_72_0" index="0" speed="8.05" length="27.19" shape="2272.07,3439.12 2271.03,3445.50 2266.11,3451.86 2259.81,3455.72 2254.63,3454.59"/>
    </edge>
    <edge id=":antrim_73" function="internal">
        <lane id=":antrim_73_0" index="0" speed="7.74" length="25.37" shape="2272.07,3439.12 2271.09,3445.10 2266.48,3451.10 2260.62,3454.73 2255.89,3453.64"/>
    </edge>
    <edge id=":antrim_74" function="internal">
        <lane id=":antrim_74_0" index="0" speed="7.73" length="25.29" shape="2272.07,3439.12 2271.09,3445.09 2266.50,3451.06 2260.66,3454.69 2255.95,3453.59"/>
    </edge>
    <edge id=":antrim_75" function="internal">
        <lane id=":antrim_75_0" index="0" speed="7.77" length="26.17" shape="2272.07,3439.12 2272.06,3446.57 2268.53,3452.53 2263.29,3454.99 2258.12,3451.94"/>
    </edge>
    <edge id=":antrim_76" function="internal">
        <lane id=":antrim_76_0" index="0" speed="7.12" length="22.17" shape="2272.07,3439.12 2272.03,3445.49 2269.00,3450.66 2264.61,3452.82 2260.48,3450.15"/>
    </edge>
    <edge id=":antrim_77" function="internal">
        <lane id=":antrim_77_0" index="0" speed="5.09" length="10.99" shape="2272.07,3439.12 2272.06,3442.42 2270.63,3445.26 2268.65,3446.56 2267.00,3445.19"/>
    </edge>
    <edge id=":antrim_78" function="internal">
        <lane id=":antrim_78_0" index="0" speed="10.00" length="60.63" shape="2272.07,3439.12 2265.18,3417.47 2262.61,3410.34 2264.35,3417.73 2270.42,3439.64"/>
    </edge>
    <edge id=":antrim_79" function="internal">
        <lane id=":antrim_79_0" index="0" speed="3.65" length="4.67" shape="2272.07,3439.12 2271.66,3440.51 2271.02,3441.13 2270.13,3440.98 2269.01,3440.08"/>
    </edge>
    <edge id=":antrim_80" function="internal">
        <lane id=":antrim_80_0" index="0" speed="6.40" length="18.48" shape="2267.33,3440.60 2270.12,3446.94 2271.33,3448.96 2270.96,3446.68 2269.01,3440.08"/>
    </edge>
    <edge id=":antrim_81" function="internal">
        <lane id=":antrim_81_0" index="0" speed="7.47" length="25.72" shape="2267.33,3440.60 2263.42,3431.83 2261.61,3429.06 2261.91,3432.30 2264.31,3441.55"/>
    </edge>
    <edge id=":antrim_82" function="internal">
        <lane id=":antrim_82_0" index="0" speed="8.45" length="33.10" shape="2267.33,3440.60 2272.41,3451.78 2274.97,3455.24 2275.00,3450.98 2272.50,3438.98"/>
    </edge>
    <edge id=":antrim_83" function="internal">
        <lane id=":antrim_83_0" index="0" speed="9.23" length="38.94" shape="2267.33,3440.60 2273.39,3453.58 2276.80,3457.52 2277.57,3452.42 2275.70,3438.29"/>
    </edge>
    <edge id=":antrim_84" function="internal">
        <lane id=":antrim_84_0" index="0" speed="10.00" length="50.95" shape="2267.33,3440.60 2276.26,3460.50 2283.60,3474.11 2289.38,3481.46 2293.57,3482.52"/>
    </edge>
    <edge id=":antrim_85" function="internal">
        <lane id=":antrim_85_0" index="0" speed="10.00" length="56.30" shape="2267.33,3440.60 2269.72,3452.55 2271.28,3470.97 2271.34,3488.14 2269.25,3496.34"/>
    </edge>
    <edge id=":antrim_86" function="internal">
        <lane id=":antrim_86_0" index="0" speed="10.00" length="49.87" shape="2267.33,3440.60 2266.61,3450.91 2260.99,3465.47 2253.09,3478.19 2245.51,3482.96"/>
    </edge>
    <edge id=":antrim_87" function="internal">
        <lane id=":antrim_87_0" index="0" speed="10.00" length="43.42" shape="2267.33,3440.60 2266.89,3450.07 2261.92,3462.67 2254.75,3473.14 2247.69,3476.23"/>
    </edge>
    <edge id=":antrim_88" function="internal">
        <lane id=":antrim_88_0" index="0" speed="9.03" length="33.28" shape="2267.33,3440.60 2268.20,3449.20 2266.22,3459.70 2262.28,3467.64 2257.27,3468.54"/>
    </edge>
    <edge id=":antrim_89" function="internal">
        <lane id=":antrim_89_0" index="0" speed="8.41" length="29.85" shape="2267.33,3440.60 2268.34,3448.68 2266.81,3458.20 2263.47,3465.09 2259.07,3465.29"/>
    </edge>
    <edge id=":antrim_90" function="internal">
        <lane id=":antrim_90_0" index="0" speed="7.18" length="22.10" shape="2267.33,3440.60 2266.95,3445.91 2263.43,3451.57 2258.68,3455.25 2254.63,3454.59"/>
    </edge>
    <edge id=":antrim_91" function="internal">
        <lane id=":antrim_91_0" index="0" speed="6.87" length="20.29" shape="2267.33,3440.60 2267.00,3445.52 2263.80,3450.82 2259.51,3454.26 2255.89,3453.64"/>
    </edge>
    <edge id=":antrim_92" function="internal">
        <lane id=":antrim_92_0" index="0" speed="6.85" length="20.20" shape="2267.33,3440.60 2267.00,3445.51 2263.82,3450.78 2259.55,3454.21 2255.95,3453.59"/>
    </edge>
    <edge id=":antrim_93" function="internal">
        <lane id=":antrim_93_0" index="0" speed="6.29" length="17.09" shape="2267.33,3440.60 2267.08,3444.83 2264.48,3449.45 2261.00,3452.48 2258.12,3451.94"/>
    </edge>
    <edge id=":antrim_94" function="internal">
        <lane id=":antrim_94_0" index="0" speed="5.66" length="13.71" shape="2267.33,3440.60 2267.19,3444.09 2265.24,3447.98 2262.62,3450.57 2260.48,3450.15"/>
    </edge>
    <edge id=":antrim_95" function="internal">
        <lane id=":antrim_95_0" index="0" speed="4.16" length="6.72" shape="2267.33,3440.60 2268.97,3441.88 2269.46,3443.07 2268.80,3444.17 2267.00,3445.19"/>
    </edge>
    <edge id=":antrim_96" function="internal">
        <lane id=":antrim_96_0" index="0" speed="7.96" length="29.02" shape="2263.04,3448.20 2268.77,3457.02 2271.34,3459.46 2270.75,3455.51 2267.00,3445.19"/>
    </edge>
    <edge id=":antrim_97" function="internal">
        <lane id=":antrim_97_0" index="0" speed="9.07" length="37.36" shape="2263.04,3448.20 2269.99,3458.49 2273.30,3460.57 2272.97,3454.43 2269.01,3440.08"/>
    </edge>
    <edge id=":antrim_98" function="internal">
        <lane id=":antrim_98_0" index="0" speed="5.99" length="14.91" shape="2263.04,3448.20 2265.32,3451.39 2266.29,3451.35 2265.95,3448.07 2264.31,3441.55"/>
    </edge>
    <edge id=":antrim_99" function="internal">
        <lane id=":antrim_99_0" index="0" speed="9.63" length="41.18" shape="2263.04,3448.20 2270.78,3459.37 2274.94,3461.56 2275.52,3454.77 2272.50,3438.98"/>
    </edge>
    <edge id=":antrim_100" function="internal">
        <lane id=":antrim_100_0" index="0" speed="10.00" length="43.78" shape="2263.04,3448.20 2271.32,3459.88 2276.19,3462.13 2277.65,3454.93 2275.70,3438.29"/>
    </edge>
    <edge id=":antrim_101" function="internal">
        <lane id=":antrim_101_0" index="0" speed="10.00" length="47.42" shape="2263.04,3448.20 2273.76,3464.82 2282.42,3476.08 2289.03,3481.98 2293.57,3482.52"/>
    </edge>
    <edge id=":antrim_102" function="internal">
        <lane id=":antrim_102_0" index="0" speed="10.00" length="55.02" shape="2263.04,3448.20 2272.17,3464.68 2277.39,3478.89 2276.99,3489.78 2269.25,3496.34"/>
    </edge>
    <edge id=":antrim_103" function="internal">
        <lane id=":antrim_103_0" index="0" speed="10.00" length="51.07" shape="2263.04,3448.20 2268.03,3461.99 2266.46,3474.02 2258.79,3481.83 2245.51,3482.96"/>
    </edge>
    <edge id=":antrim_104" function="internal">
        <lane id=":antrim_104_0" index="0" speed="9.62" length="35.52" shape="2263.04,3448.20 2263.76,3456.22 2260.22,3466.24 2254.25,3474.24 2247.69,3476.23"/>
    </edge>
    <edge id=":antrim_105" function="internal">
        <lane id=":antrim_105_0" index="0" speed="8.20" length="28.77" shape="2263.04,3448.20 2266.02,3456.63 2265.92,3464.85 2262.93,3469.83 2257.27,3468.54"/>
    </edge>
    <edge id=":antrim_106" function="internal">
        <lane id=":antrim_106_0" index="0" speed="7.39" length="23.92" shape="2263.04,3448.20 2265.55,3455.33 2265.59,3462.40 2263.37,3466.64 2259.07,3465.29"/>
    </edge>
    <edge id=":antrim_107" function="internal">
        <lane id=":antrim_107_0" index="0" speed="5.44" length="12.48" shape="2263.04,3448.20 2262.82,3450.85 2260.38,3453.53 2257.16,3455.15 2254.63,3454.59"/>
    </edge>
    <edge id=":antrim_108" function="internal">
        <lane id=":antrim_108_0" index="0" speed="5.06" length="10.62" shape="2263.04,3448.20 2262.84,3450.46 2260.75,3452.76 2258.01,3454.14 2255.89,3453.64"/>
    </edge>
    <edge id=":antrim_109" function="internal">
        <lane id=":antrim_109_0" index="0" speed="5.04" length="10.53" shape="2263.04,3448.20 2262.84,3450.44 2260.77,3452.72 2258.05,3454.09 2255.95,3453.59"/>
    </edge>
    <edge id=":antrim_110" function="internal">
        <lane id=":antrim_110_0" index="0" speed="4.63" length="8.73" shape="2263.04,3448.20 2263.30,3450.42 2261.99,3452.23 2259.97,3452.96 2258.12,3451.94"/>
    </edge>
    <edge id=":antrim_111" function="internal">
        <lane id=":antrim_111_0" index="0" speed="3.66" length="4.70" shape="2263.04,3448.20 2263.13,3449.65 2262.73,3450.45 2261.85,3450.62 2260.48,3450.15"/>
    </edge>
    <edge id=":antrim_112" function="internal">
        <lane id=":antrim_112_0" index="0" speed="3.41" length="3.71" shape="2260.67,3450.00 2259.86,3448.88 2259.56,3448.53 2259.77,3448.95 2260.48,3450.15"/>
    </edge>
    <edge id=":antrim_113" function="internal">
        <lane id=":antrim_113_0" index="0" speed="8.72" length="34.48" shape="2260.67,3450.00 2268.14,3459.81 2271.68,3462.28 2271.30,3457.41 2267.00,3445.19"/>
    </edge>
    <edge id=":antrim_114" function="internal">
        <lane id=":antrim_114_0" index="0" speed="9.56" length="40.70" shape="2260.67,3450.00 2268.96,3460.49 2273.11,3462.33 2273.13,3455.52 2269.01,3440.08"/>
    </edge>
    <edge id=":antrim_115" function="internal">
        <lane id=":antrim_115_0" index="0" speed="7.22" length="22.09" shape="2260.67,3450.00 2264.68,3454.88 2266.62,3455.10 2266.50,3450.66 2264.31,3441.55"/>
    </edge>
    <edge id=":antrim_116" function="internal">
        <lane id=":antrim_116_0" index="0" speed="10.00" length="43.68" shape="2260.67,3450.00 2269.60,3461.02 2274.55,3462.86 2275.52,3455.51 2272.50,3438.98"/>
    </edge>
    <edge id=":antrim_117" function="internal">
        <lane id=":antrim_117_0" index="0" speed="10.00" length="45.89" shape="2260.67,3450.00 2270.06,3461.36 2275.70,3463.19 2277.58,3455.50 2275.70,3438.29"/>
    </edge>
    <edge id=":antrim_118" function="internal">
        <lane id=":antrim_118_0" index="0" speed="10.00" length="47.68" shape="2260.67,3450.00 2272.39,3465.85 2281.79,3476.56 2288.85,3482.11 2293.57,3482.52"/>
    </edge>
    <edge id=":antrim_119" function="internal">
        <lane id=":antrim_119_0" index="0" speed="10.00" length="53.97" shape="2260.67,3450.00 2270.60,3465.53 2276.61,3479.18 2276.80,3489.83 2269.25,3496.34"/>
    </edge>
    <edge id=":antrim_120" function="internal">
        <lane id=":antrim_120_0" index="0" speed="10.00" length="47.96" shape="2260.67,3450.00 2265.96,3462.65 2264.85,3474.08 2257.85,3481.72 2245.51,3482.96"/>
    </edge>
    <edge id=":antrim_121" function="internal">
        <lane id=":antrim_121_0" index="0" speed="9.97" length="39.41" shape="2260.67,3450.00 2264.71,3460.53 2263.38,3470.27 2257.44,3476.43 2247.69,3476.23"/>
    </edge>
    <edge id=":antrim_122" function="internal">
        <lane id=":antrim_122_0" index="0" speed="7.69" length="25.68" shape="2260.67,3450.00 2263.83,3457.43 2264.31,3464.91 2262.12,3469.58 2257.27,3468.54"/>
    </edge>
    <edge id=":antrim_123" function="internal">
        <lane id=":antrim_123_0" index="0" speed="6.87" length="20.91" shape="2260.67,3450.00 2263.35,3456.18 2264.01,3462.49 2262.60,3466.38 2259.07,3465.29"/>
    </edge>
    <edge id=":antrim_124" function="internal">
        <lane id=":antrim_124_0" index="0" speed="5.05" length="10.69" shape="2260.67,3450.00 2261.13,3452.63 2259.58,3454.80 2257.07,3455.72 2254.63,3454.59"/>
    </edge>
    <edge id=":antrim_125" function="internal">
        <lane id=":antrim_125_0" index="0" speed="4.28" length="7.11" shape="2260.67,3450.00 2260.58,3451.48 2259.18,3453.02 2257.32,3453.96 2255.89,3453.64"/>
    </edge>
    <edge id=":antrim_126" function="internal">
        <lane id=":antrim_126_0" index="0" speed="3.99" length="5.93" shape="2260.67,3450.00 2255.95,3453.59"/>
    </edge>
    <edge id=":antrim_127" function="internal">
        <lane id=":antrim_127_0" index="0" speed="3.65" length="4.68" shape="2260.67,3450.00 2260.76,3451.44 2260.36,3452.25 2259.48,3452.41 2258.12,3451.94"/>
    </edge>
    <edge id=":antrim_128" function="internal">
        <lane id=":antrim_128_0" index="0" speed="2.78" length="1.70" shape="2254.53,3454.67 2254.99,3455.12 2255.15,3455.26 2255.04,3455.08 2254.63,3454.59"/>
    </edge>
    <edge id=":antrim_129" function="internal">
        <lane id=":antrim_129_0" index="0" speed="6.05" length="16.22" shape="2254.53,3454.67 2258.87,3458.93 2260.54,3460.19 2259.55,3458.42 2255.89,3453.64"/>
    </edge>
    <edge id=":antrim_130" function="internal">
        <lane id=":antrim_130_0" index="0" speed="6.12" length="16.69" shape="2254.53,3454.67 2259.00,3459.05 2260.72,3460.34 2259.70,3458.52 2255.95,3453.59"/>
    </edge>
    <edge id=":antrim_131" function="internal">
        <lane id=":antrim_131_0" index="0" speed="7.76" length="27.58" shape="2254.53,3454.67 2261.92,3461.80 2264.99,3463.72 2263.72,3460.43 2258.12,3451.94"/>
    </edge>
    <edge id=":antrim_132" function="internal">
        <lane id=":antrim_132_0" index="0" speed="8.60" length="33.51" shape="2254.53,3454.67 2263.49,3463.12 2267.46,3465.19 2266.46,3460.86 2260.48,3450.15"/>
    </edge>
    <edge id=":antrim_133" function="internal">