<?xml version="1.0" encoding="UTF-8"?>

<!-- generated on 2025-02-19 12:42:16 by Eclipse SUMO netconvert Version 1.18.0
<configuration xmlns:xsi="http://www.w3.org/2001/XMLSchema-instance" xsi:noNamespaceSchemaLocation="http://sumo.dlr.de/xsd/netconvertConfiguration.xsd">

    <input>
        <node-files value="nod.xml"/>
        <edge-files value="edge_xmls/07172.xml"/>
    </input>

    <output>
        <output-file value="networks/07172.net.xml"/>
    </output>

</configuration>
-->

<net version="1.16" junctionCornerDetail="5" limitTurnSpeed="5.50" xmlns:xsi="http://www.w3.org/2001/XMLSchema-instance" xsi:noNamespaceSchemaLocation="http://sumo.dlr.de/xsd/net_file.xsd">

    <location netOffset="-682.00,4368.00" convBoundary="0.00,0.00,2498.00,3881.00" origBoundary="682.00,-4368.00,3180.00,-487.00" projParameter="!"/>

    <edge id=":antrim_0" function="internal">
        <lane id=":antrim_0_0" index="0" speed="4.81" length="9.14" shape="2284.90,3463.69 2285.36,3466.97 2285.80,3468.01 2286.23,3466.83 2286.63,3463.41"/>
    </edge>
    <edge id=":antrim_1" function="internal">
        <lane id=":antrim_1_0" index="0" speed="8.63" length="22.28" shape="2284.90,3463.69 2286.17,3473.47 2287.54,3480.17 2289.01,3483.79 2290.60,3484.33"/>
    </edge>
    <edge id=":antrim_2" function="internal">
        <lane id=":antrim_2_0" index="0" speed="10.00" length="42.29" shape="2284.90,3463.69 2284.99,3475.80 2282.45,3485.97 2277.27,3494.18 2269.48,3500.45"/>
    </edge>
    <edge id=":antrim_3" function="internal">
        <lane id=":antrim_3_0" index="0" speed="10.00" length="40.64" shape="2284.90,3463.69 2284.89,3475.67 2282.05,3485.18 2276.36,3492.23 2267.83,3496.82"/>
    </edge>
    <edge id=":antrim_4" function="internal">
        <lane id=":antrim_4_0" index="0" speed="6.87" length="18.97" shape="2284.90,3463.69 2282.99,3466.59 2278.01,3467.34 2272.39,3466.19 2268.56,3463.42"/>
    </edge>
    <edge id=":antrim_5" function="internal">
        <lane id=":antrim_5_0" index="0" speed="8.12" length="29.17" shape="2284.90,3463.69 2282.92,3465.54 2277.41,3460.53 2271.14,3452.37 2266.83,3444.78"/>
    </edge>
    <edge id=":antrim_6" function="internal">
        <lane id=":antrim_6_0" index="0" speed="4.05" length="6.18" shape="2284.90,3463.69 2284.39,3465.16 2282.98,3465.85 2281.45,3465.64 2280.59,3464.40"/>
    </edge>
    <edge id=":antrim_7" function="internal">
        <lane id=":antrim_7_0" index="0" speed="7.83" length="29.15" shape="2284.90,3463.69 2283.64,3452.89 2282.93,3449.33 2282.79,3453.03 2283.20,3463.97"/>
    </edge>
    <edge id=":antrim_8" function="internal">
        <lane id=":antrim_8_0" index="0" speed="8.89" length="36.41" shape="2284.90,3463.69 2273.68,3464.22 2267.47,3461.05 2266.29,3454.18 2270.12,3443.61"/>
    </edge>
    <edge id=":antrim_9" function="internal">
        <lane id=":antrim_9_0" index="0" speed="3.77" length="4.94" shape="2283.72,3463.89 2283.41,3462.08 2283.22,3461.49 2283.15,3462.12 2283.20,3463.97"/>
    </edge>
    <edge id=":antrim_10" function="internal">
        <lane id=":antrim_10_0" index="0" speed="5.52" length="12.53" shape="2283.72,3463.89 2284.59,3468.29 2285.37,3469.68 2286.05,3468.06 2286.63,3463.41"/>
    </edge>
    <edge id=":antrim_11" function="internal">
        <lane id=":antrim_11_0" index="0" speed="8.78" length="22.47" shape="2283.72,3463.89 2285.46,3473.60 2287.19,3480.25 2288.90,3483.82 2290.60,3484.33"/>
    </edge>
    <edge id=":antrim_12" function="internal">
        <lane id=":antrim_12_0" index="0" speed="10.00" length="41.88" shape="2283.72,3463.89 2284.34,3475.90 2282.17,3486.00 2277.22,3494.18 2269.48,3500.45"/>
    </edge>
    <edge id=":antrim_13" function="internal">
        <lane id=":antrim_13_0" index="0" speed="10.00" length="40.20" shape="2283.72,3463.89 2284.25,3475.77 2281.78,3485.22 2276.31,3492.23 2267.83,3496.82"/>
    </edge>
    <edge id=":antrim_14" function="internal">
        <lane id=":antrim_14_0" index="0" speed="6.58" length="17.62" shape="2283.72,3463.89 2282.05,3466.53 2277.42,3467.15 2272.15,3466.02 2268.56,3463.42"/>
    </edge>
    <edge id=":antrim_15" function="internal">
        <lane id=":antrim_15_0" index="0" speed="7.93" length="28.27" shape="2283.72,3463.89 2282.07,3465.56 2276.93,3460.45 2270.97,3452.28 2266.83,3444.78"/>
    </edge>
    <edge id=":antrim_16" function="internal">
        <lane id=":antrim_16_0" index="0" speed="7.64" length="26.79" shape="2283.72,3463.89 2282.46,3465.20 2278.30,3459.68 2273.45,3451.19 2270.12,3443.61"/>
    </edge>
    <edge id=":antrim_17" function="internal">
        <lane id=":antrim_17_0" index="0" speed="3.64" length="4.63" shape="2283.72,3463.89 2283.13,3465.19 2282.41,3465.71 2281.56,3465.44 2280.59,3464.40"/>
    </edge>
    <edge id=":antrim_18" function="internal">
        <lane id=":antrim_18_0" index="0" speed="6.35" length="17.33" shape="2265.72,3466.06 2270.28,3470.36 2272.28,3471.36 2271.70,3469.04 2268.56,3463.42"/>
    </edge>
    <edge id=":antrim_19" function="internal">
        <lane id=":antrim_19_0" index="0" speed="9.15" length="35.78" shape="2265.72,3466.06 2271.75,3470.80 2273.95,3468.83 2272.31,3460.16 2266.83,3444.78"/>
    </edge>
    <edge id=":antrim_20" function="internal">
        <lane id=":antrim_20_0" index="0" speed="9.53" length="37.82" shape="2265.72,3466.06 2272.28,3471.06 2275.20,3468.99 2274.48,3459.84 2270.12,3443.61"/>
    </edge>
    <edge id=":antrim_21" function="internal">
        <lane id=":antrim_21_0" index="0" speed="8.36" length="26.89" shape="2265.72,3466.06 2273.38,3472.81 2278.41,3474.78 2280.81,3471.98 2280.59,3464.40"/>
    </edge>
    <edge id=":antrim_22" function="internal">
        <lane id=":antrim_22_0" index="0" speed="8.85" length="28.89" shape="2265.72,3466.06 2273.74,3472.99 2279.33,3474.95 2282.48,3471.94 2283.20,3463.97"/>
    </edge>
    <edge id=":antrim_23" function="internal">
        <lane id=":antrim_23_0" index="0" speed="9.51" length="31.53" shape="2265.72,3466.06 2274.15,3473.15 2280.44,3475.07 2284.60,3471.82 2286.63,3463.41"/>
    </edge>
    <edge id=":antrim_24" function="internal">
        <lane id=":antrim_24_0" index="0" speed="10.00" length="31.57" shape="2265.72,3466.06 2274.97,3475.04 2282.20,3481.08 2287.41,3484.18 2290.60,3484.33"/>
    </edge>
    <edge id=":antrim_25" function="internal">
        <lane id=":antrim_25_0" index="0" speed="10.00" length="36.72" shape="2265.72,3466.06 2269.97,3473.50 2272.69,3484.03 2272.87,3494.16 2269.48,3500.45"/>
    </edge>
    <edge id=":antrim_26" function="internal">
        <lane id=":antrim_26_0" index="0" speed="10.00" length="38.94" shape="2265.72,3466.06 2273.39,3475.25 2277.36,3483.97 2276.03,3491.42 2267.83,3496.82"/>
    </edge>
    <edge id=":antrim_27" function="internal">
        <lane id=":antrim_27_0" index="0" speed="7.97" length="23.85" shape="2276.35,3483.64 2278.06,3483.21 2277.34,3479.70 2274.17,3473.10 2268.56,3463.42"/>
    </edge>
    <edge id=":antrim_28" function="internal">
        <lane id=":antrim_28_0" index="0" speed="10.00" length="41.71" shape="2276.35,3483.64 2278.32,3482.18 2277.39,3475.22 2273.56,3462.75 2266.83,3444.78"/>
    </edge>
    <edge id=":antrim_29" function="internal">
        <lane id=":antrim_29_0" index="0" speed="10.00" length="42.36" shape="2276.35,3483.64 2278.64,3482.15 2278.36,3474.98 2275.52,3462.14 2270.12,3443.61"/>
    </edge>
    <edge id=":antrim_30" function="internal">
        <lane id=":antrim_30_0" index="0" speed="8.55" length="22.77" shape="2276.35,3483.64 2279.48,3483.52 2281.24,3480.28 2281.60,3473.90 2280.59,3464.40"/>
    </edge>
    <edge id=":antrim_31" function="internal">
        <lane id=":antrim_31_0" index="0" speed="8.97" length="23.78" shape="2276.35,3483.64 2279.76,3483.54 2282.03,3480.22 2283.18,3473.70 2283.20,3463.97"/>
    </edge>
    <edge id=":antrim_32" function="internal">
        <lane id=":antrim_32_0" index="0" speed="9.63" length="25.42" shape="2276.35,3483.64 2280.08,3483.55 2283.04,3480.14 2285.22,3473.43 2286.63,3463.41"/>
    </edge>
    <edge id=":antrim_33" function="internal">
        <lane id=":antrim_33_0" index="0" speed="10.00" length="14.70" shape="2276.35,3483.64 2280.80,3485.03 2284.65,3485.61 2287.92,3485.37 2290.60,3484.33"/>
    </edge>
    <edge id=":antrim_34" function="internal">
        <lane id=":antrim_34_0" index="0" speed="8.33" length="23.56" shape="2276.35,3483.64 2280.48,3487.06 2279.72,3491.48 2275.56,3496.19 2269.48,3500.45"/>
    </edge>
    <edge id=":antrim_35" function="internal">
        <lane id=":antrim_35_0" index="0" speed="7.01" length="17.86" shape="2276.35,3483.64 2277.78,3486.25 2275.78,3490.30 2271.94,3494.31 2267.83,3496.82"/>
    </edge>
    <edge id=":athlone_0" function="internal">
        <lane id=":athlone_0_0" index="0" speed="6.98" length="19.50" shape="1265.31,1976.17 1262.70,1973.68 1261.39,1974.98 1261.38,1980.06 1262.67,1988.93"/>
    </edge>
    <edge id=":athlone_1" function="internal">
        <lane id=":athlone_1_0" index="0" speed="7.53" length="21.77" shape="1265.31,1976.17 1262.12,1973.24 1260.00,1974.46 1258.96,1979.83 1258.98,1989.35"/>
    </edge>
    <edge id=":athlone_2" function="internal">
        <lane id=":athlone_2_0" index="0" speed="10.00" length="27.79" shape="1265.31,1976.17 1262.17,1971.34 1258.08,1964.26 1254.35,1957.02 1252.27,1951.70"/>
    </edge>
    <edge id=":athlone_3" function="internal">
        <lane id=":athlone_3_0" index="0" speed="10.00" length="32.61" shape="1265.31,1976.17 1260.82,1968.65 1258.44,1961.02 1258.18,1953.26 1260.05,1945.39"/>
    </edge>
    <edge id=":athlone_4" function="internal">
        <lane id=":athlone_4_0" index="0" speed="10.00" length="31.01" shape="1265.31,1976.17 1260.98,1968.69 1259.27,1961.41 1260.20,1954.33 1263.75,1947.45"/>
    </edge>
    <edge id=":athlone_5" function="internal">
        <lane id=":athlone_5_0" index="0" speed="9.08" length="24.17" shape="1265.31,1976.17 1261.22,1969.90 1259.24,1964.29 1260.40,1959.80 1265.76,1956.89"/>
    </edge>
    <edge id=":athlone_6" function="internal">
        <lane id=":athlone_6_0" index="0" speed="7.10" length="18.66" shape="1265.31,1976.17 1262.32,1971.02 1260.86,1965.97 1261.69,1962.50 1265.55,1962.10"/>
    </edge>
    <edge id=":athlone_7" function="internal">
        <lane id=":athlone_7_0" index="0" speed="7.66" length="27.69" shape="1265.31,1976.17 1271.61,1984.41 1273.99,1986.99 1272.44,1983.89 1266.96,1975.12"/>
    </edge>
    <edge id=":athlone_8" function="internal">
        <lane id=":athlone_8_0" index="0" speed="10.00" length="0.89" shape="1263.60,1947.33 1263.48,1947.64 1263.46,1947.76 1263.55,1947.70 1263.75,1947.45"/>
    </edge>
    <edge id=":athlone_9" function="internal">
        <lane id=":athlone_9_0" index="0" speed="6.42" length="13.14" shape="1263.60,1947.33 1261.91,1952.17 1261.71,1955.38 1262.99,1956.96 1265.76,1956.89"/>
    </edge>
    <edge id=":athlone_10" function="internal">
        <lane id=":athlone_10_0" index="0" speed="8.35" length="16.99" shape="1263.60,1947.33 1261.69,1952.99 1261.38,1957.34 1262.67,1960.37 1265.55,1962.10"/>
    </edge>
    <edge id=":athlone_11" function="internal">
        <lane id=":athlone_11_0" index="0" speed="10.00" length="29.17" shape="1263.60,1947.33 1261.63,1954.13 1261.54,1961.04 1263.31,1968.03 1266.96,1975.12"/>
    </edge>
    <edge id=":athlone_12" function="internal">
        <lane id=":athlone_12_0" index="0" speed="10.00" length="41.70" shape="1263.60,1947.33 1262.50,1955.07 1262.06,1968.01 1262.17,1981.00 1262.67,1988.93"/>
    </edge>
    <edge id=":athlone_13" function="internal">
        <lane id=":athlone_13_0" index="0" speed="10.00" length="42.33" shape="1263.60,1947.33 1262.01,1955.13 1260.46,1968.19 1259.33,1981.32 1258.98,1989.35"/>
    </edge>
    <edge id=":athlone_14" function="internal">
        <lane id=":athlone_14_0" index="0" speed="6.63" length="16.21" shape="1263.60,1947.33 1260.91,1951.55 1257.49,1954.31 1254.29,1954.67 1252.27,1951.70"/>
    </edge>
    <edge id=":athlone_15" function="internal">
        <lane id=":athlone_15_0" index="0" speed="3.99" length="5.91" shape="1263.60,1947.33 1261.98,1948.17 1260.85,1948.13 1260.21,1947.20 1260.05,1945.39"/>
    </edge>
    <edge id=":athlone_16" function="internal">
        <lane id=":athlone_16_0" index="0" speed="5.80" length="9.58" shape="1247.42,1956.93 1250.13,1957.28 1251.85,1956.53 1252.56,1954.67 1252.27,1951.70"/>
    </edge>
    <edge id=":athlone_17" function="internal">
        <lane id=":athlone_17_0" index="0" speed="9.41" length="18.79" shape="1247.42,1956.93 1251.05,1957.01 1254.37,1955.11 1257.37,1951.24 1260.05,1945.39"/>
    </edge>
    <edge id=":athlone_18" function="internal">
        <lane id=":athlone_18_0" index="0" speed="10.00" length="20.06" shape="1247.42,1956.93 1251.41,1957.17 1255.47,1955.67 1259.58,1952.43 1263.75,1947.45"/>
    </edge>
    <edge id=":athlone_19" function="internal">
        <lane id=":athlone_19_0" index="0" speed="10.00" length="18.47" shape="1247.42,1956.93 1251.63,1957.67 1256.57,1957.88 1261.52,1957.60 1265.76,1956.89"/>
    </edge>
    <edge id=":athlone_20" function="internal">
        <lane id=":athlone_20_0" index="0" speed="10.00" length="18.85" shape="1247.42,1956.93 1265.55,1962.10"/>
    </edge>
    <edge id=":athlone_21" function="internal">
        <lane id=":athlone_21_0" index="0" speed="10.00" length="26.89" shape="1247.42,1956.93 1252.12,1959.75 1257.98,1964.95 1263.44,1970.69 1266.96,1975.12"/>
    </edge>
    <edge id=":athlone_22" function="internal">
        <lane id=":athlone_22_0" index="0" speed="10.00" length="36.71" shape="1247.42,1956.93 1252.11,1959.98 1256.22,1966.33 1259.74,1975.98 1262.67,1988.93"/>
    </edge>
    <edge id=":athlone_23" function="internal">
        <lane id=":athlone_23_0" index="0" speed="10.00" length="36.00" shape="1247.42,1956.93 1251.94,1960.02 1255.37,1966.46 1257.72,1976.23 1258.98,1989.35"/>
    </edge>
    <edge id=":belfast_0" function="internal">
        <lane id=":belfast_0_0" index="0" speed="9.12" length="31.08" shape="2489.26,3330.65 2487.80,3336.71 2481.11,3341.55 2472.42,3343.99 2464.95,3342.85"/>
    </edge>
    <edge id=":belfast_1" function="internal">
        <lane id=":belfast_1_0" index="0" speed="7.81" length="24.53" shape="2489.26,3330.65 2487.79,3334.93 2481.85,3337.52 2474.49,3337.98 2468.73,3335.87"/>
    </edge>
    <edge id=":belfast_2" function="internal">
        <lane id=":belfast_2_0" index="0" speed="7.54" length="23.88" shape="2489.26,3330.65 2488.82,3335.81 2484.18,3337.70 2477.75,3336.50 2471.89,3332.40"/>
    </edge>
    <edge id=":belfast_3" function="internal">
        <lane id=":belfast_3_0" index="0" speed="3.63" length="4.51" shape="2489.26,3330.65 2485.08,3332.33"/>
    </edge>
    <edge id=":belfast_4" function="internal">
        <lane id=":belfast_4_0" index="0" speed="9.50" length="34.56" shape="2488.01,3331.15 2488.44,3339.60 2483.18,3344.68 2474.57,3345.91 2464.95,3342.85"/>
    </edge>
    <edge id=":belfast_5" function="internal">
        <lane id=":belfast_5_0" index="0" speed="7.52" length="23.00" shape="2488.01,3331.15 2486.74,3335.10 2481.15,3337.47 2474.17,3337.86 2468.73,3335.87"/>
    </edge>
    <edge id=":belfast_6" function="internal">
        <lane id=":belfast_6_0" index="0" speed="6.70" length="18.75" shape="2488.01,3331.15 2486.84,3334.03 2482.04,3335.17 2476.19,3334.62 2471.89,3332.40"/>
    </edge>
    <edge id=":belfast_7" function="internal">
        <lane id=":belfast_7_0" index="0" speed="3.64" length="4.62" shape="2488.01,3331.15 2487.72,3332.55 2487.13,3333.21 2486.25,3333.14 2485.08,3332.33"/>
    </edge>
    <edge id=":belfast_8" function="internal">
        <lane id=":belfast_8_0" index="0" speed="3.64" length="4.43" shape="2484.57,3332.52 2485.41,3333.96 2485.77,3334.41 2485.66,3333.87 2485.08,3332.33"/>
    </edge>
    <edge id=":belfast_9" function="internal">
        <lane id=":belfast_9_0" index="0" speed="8.66" length="29.99" shape="2484.57,3332.52 2485.53,3339.54 2481.01,3344.03 2473.36,3345.34 2464.95,3342.85"/>
    </edge>
    <edge id=":belfast_10" function="internal">
        <lane id=":belfast_10_0" index="0" speed="6.34" length="17.39" shape="2484.57,3332.52 2484.68,3335.85 2481.25,3336.76 2476.30,3335.53 2471.89,3332.40"/>
    </edge>
    <edge id=":belfast_11" function="internal">
        <lane id=":belfast_11_0" index="0" speed="7.45" length="23.65" shape="2484.57,3332.52 2481.86,3339.30 2478.32,3342.12 2473.94,3340.97 2468.73,3335.87"/>
    </edge>
    <edge id=":belfast_12" function="internal">
        <lane id=":belfast_12_0" index="0" speed="7.85" length="26.51" shape="2474.06,3330.02 2481.82,3338.30 2486.25,3341.45 2487.33,3339.46 2485.08,3332.33"/>
    </edge>
    <edge id=":belfast_13" function="internal">
        <lane id=":belfast_13_0" index="0" speed="7.17" length="21.77" shape="2474.06,3330.02 2476.12,3335.42 2474.50,3340.54 2470.38,3343.61 2464.95,3342.85"/>
    </edge>
    <edge id=":belfast_14" function="internal">
        <lane id=":belfast_14_0" index="0" speed="5.16" length="11.13" shape="2474.06,3330.02 2474.91,3332.75 2473.70,3335.29 2471.35,3336.66 2468.73,3335.87"/>
    </edge>
    <edge id=":belfast_15" function="internal">
        <lane id=":belfast_15_0" index="0" speed="3.66" length="4.70" shape="2474.06,3330.02 2474.41,3331.43 2474.17,3332.30 2473.33,3332.62 2471.89,3332.40"/>
    </edge>
    <edge id=":belfast_16" function="internal">
        <lane id=":belfast_16_0" index="0" speed="4.64" length="8.75" shape="2469.13,3335.42 2466.52,3333.43 2465.59,3332.84 2466.32,3333.66 2468.73,3335.87"/>
    </edge>
    <edge id=":belfast_17" function="internal">
        <lane id=":belfast_17_0" index="0" speed="3.73" length="4.63" shape="2469.13,3335.42 2470.51,3336.43 2471.07,3336.66 2470.80,3336.11 2469.72,3334.78"/>
    </edge>
    <edge id=":belfast_18" function="internal">
        <lane id=":belfast_18_0" index="0" speed="8.89" length="32.00" shape="2469.13,3335.42 2479.56,3342.59 2485.69,3344.47 2487.53,3341.05 2485.08,3332.33"/>
    </edge>
    <edge id=":belfast_19" function="internal">
        <lane id=":belfast_19_0" index="0" speed="5.33" length="11.97" shape="2469.13,3335.42 2470.63,3338.15 2469.98,3341.11 2467.86,3343.09 2464.95,3342.85"/>
    </edge>
    <edge id=":belfast_20" function="internal">
        <lane id=":belfast_20_0" index="0" speed="6.91" length="21.23" shape="2466.56,3339.13 2473.35,3342.95 2475.98,3343.68 2474.44,3341.32 2468.73,3335.87"/>
    </edge>
    <edge id=":belfast_21" function="internal">
        <lane id=":belfast_21_0" index="0" speed="6.57" length="18.12" shape="2466.56,3339.13 2472.24,3342.17 2474.66,3342.46 2473.82,3340.00 2469.72,3334.78"/>
    </edge>
    <edge id=":belfast_22" function="internal">
        <lane id=":belfast_22_0" index="0" speed="9.47" length="34.67" shape="2466.56,3339.13 2478.27,3345.09 2485.27,3345.94 2487.53,3341.69 2485.08,3332.33"/>
    </edge>
    <edge id=":belfast_23" function="internal">
        <lane id=":belfast_23_0" index="0" speed="3.49" length="4.05" shape="2466.56,3339.13 2464.95,3342.85"/>
    </edge>
    <edge id=":belfast_24" function="internal">
        <lane id=":belfast_24_0" index="0" speed="7.27" length="23.46" shape="2466.15,3340.08 2473.72,3344.02 2476.68,3344.63 2475.01,3341.92 2468.73,3335.87"/>
    </edge>
    <edge id=":belfast_25" function="internal">
        <lane id=":belfast_25_0" index="0" speed="6.89" length="19.93" shape="2466.15,3340.08 2472.42,3343.18 2475.11,3343.33 2474.21,3340.53 2469.72,3334.78"/>
    </edge>
    <edge id=":belfast_26" function="internal">
        <lane id=":belfast_26_0" index="0" speed="9.59" length="35.16" shape="2466.15,3340.08 2478.07,3345.69 2485.20,3346.27 2487.54,3341.82 2485.08,3332.33"/>
    </edge>
    <edge id=":belfast_27" function="internal">
        <lane id=":belfast_27_0" index="0" speed="3.58" length="4.41" shape="2466.15,3340.08 2466.89,3341.22 2466.94,3342.06 2466.29,3342.61 2464.95,3342.85"/>
    </edge>
    <edge id=":belfast_28" function="internal">
        <lane id=":belfast_28_0" index="0" speed="5.37" length="12.21" shape="2464.33,3344.27 2468.55,3345.92 2470.06,3346.23 2468.86,3345.21 2464.95,3342.85"/>
    </edge>
    <edge id=":belfast_29" function="internal">
        <lane id=":belfast_29_0" index="0" speed="8.29" length="29.72" shape="2464.33,3344.27 2474.21,3347.74 2478.24,3347.49 2476.41,3343.54 2468.73,3335.87"/>
    </edge>
    <edge id=":belfast_30" function="internal">
        <lane id=":belfast_30_0" index="0" speed="7.98" length="26.08" shape="2464.33,3344.27 2472.68,3347.00 2476.35,3346.33 2475.37,3342.26 2469.72,3334.78"/>
    </edge>
    <edge id=":belfast_31" function="internal">
        <lane id=":belfast_31_0" index="0" speed="10.00" length="37.47" shape="2464.33,3344.27 2477.16,3348.32 2484.89,3347.68 2487.53,3342.35 2485.08,3332.33"/>
    </edge>
    <edge id=":belfast_32" function="internal">
        <lane id=":belfast_32_0" index="0" speed="10.00" length="33.43" shape="2491.76,3361.93 2491.24,3360.03 2486.60,3356.21 2477.84,3350.49 2464.95,3342.85"/>
    </edge>
    <edge id=":belfast_33" function="internal">
        <lane id=":belfast_33_0" index="0" speed="10.00" length="35.44" shape="2491.76,3361.93 2491.66,3359.48 2487.79,3354.32 2480.14,3346.45 2468.73,3335.87"/>
    </edge>
    <edge id=":belfast_34" function="internal">
        <lane id=":belfast_34_0" index="0" speed="10.00" length="36.28" shape="2491.76,3361.93 2491.94,3359.22 2488.69,3353.39 2482.00,3344.45 2471.89,3332.40"/>
    </edge>
    <edge id=":belfast_35" function="internal">
        <lane id=":belfast_35_0" index="0" speed="10.00" length="31.07" shape="2491.76,3361.93 2492.93,3359.11 2492.21,3353.24 2489.59,3344.31 2485.08,3332.33"/>
    </edge>
    <edge id=":bray_0" function="internal">
        <lane id=":bray_0_0" index="0" speed="10.00" length="50.21" shape="2432.17,1644.63 2438.57,1653.54 2442.21,1664.41 2443.09,1677.25 2441.20,1692.04"/>
    </edge>
    <edge id=":bray_1" function="internal">
        <lane id=":bray_1_0" index="0" speed="10.00" length="56.86" shape="2432.17,1644.63 2437.56,1653.95 2437.81,1665.68 2432.92,1679.84 2422.90,1696.43"/>
    </edge>
    <edge id=":bray_2" function="internal">
        <lane id=":bray_2_0" index="0" speed="10.00" length="49.64" shape="2432.17,1644.63 2432.13,1652.78 2427.19,1666.73 2420.14,1680.89 2413.74,1689.68"/>
    </edge>
    <edge id=":bray_3" function="internal">
        <lane id=":bray_3_0" index="0" speed="10.00" length="48.43" shape="2432.17,1644.63 2431.87,1652.53 2426.20,1665.73 2418.29,1679.00 2411.31,1687.13"/>
    </edge>
    <edge id=":bray_4" function="internal">
        <lane id=":bray_4_0" index="0" speed="10.00" length="45.74" shape="2432.17,1644.63 2429.50,1650.00 2417.82,1656.58 2403.48,1662.21 2392.85,1664.75"/>
    </edge>
    <edge id=":bray_5" function="internal">
        <lane id=":bray_5_0" index="0" speed="5.76" length="13.23" shape="2432.17,1644.63 2432.42,1647.15 2430.14,1649.94 2426.73,1651.92 2423.58,1652.00"/>
    </edge>
    <edge id=":bray_6" function="internal">
        <lane id=":bray_6_0" index="0" speed="3.78" length="5.10" shape="2432.17,1644.63 2432.29,1645.70 2431.49,1646.97 2430.30,1647.86 2429.26,1647.80"/>
    </edge>
    <edge id=":bray_7" function="internal">
        <lane id=":bray_7_0" index="0" speed="3.33" length="3.50" shape="2432.17,1644.63 2429.80,1647.21"/>
    </edge>
    <edge id=":bray_8" function="internal">
        <lane id=":bray_8_0" index="0" speed="3.65" length="4.68" shape="2432.17,1644.63 2432.51,1646.04 2432.27,1646.90 2431.43,1647.22 2430.00,1646.99"/>
    </edge>
    <edge id=":bray_9" function="internal">
        <lane id=":bray_9_0" index="0" speed="5.82" length="13.46" shape="2426.82,1651.71 2431.37,1653.20 2433.30,1653.05 2432.60,1651.25 2429.26,1647.80"/>
    </edge>
    <edge id=":bray_10" function="internal">
        <lane id=":bray_10_0" index="0" speed="6.05" length="14.49" shape="2426.82,1651.71 2431.70,1653.28 2433.82,1653.05 2433.19,1651.03 2429.80,1647.21"/>
    </edge>
    <edge id=":bray_11" function="internal">
        <lane id=":bray_11_0" index="0" speed="6.13" length="14.84" shape="2426.82,1651.71 2431.80,1653.30 2433.99,1653.05 2433.40,1650.94 2430.00,1646.99"/>
    </edge>
    <edge id=":bray_12" function="internal">
        <lane id=":bray_12_0" index="0" speed="10.00" length="46.89" shape="2426.82,1651.71 2435.60,1657.34 2440.92,1665.94 2442.79,1677.51 2441.20,1692.04"/>
    </edge>
    <edge id=":bray_13" function="internal">
        <lane id=":bray_13_0" index="0" speed="10.00" length="52.75" shape="2426.82,1651.71 2435.85,1658.84 2437.03,1669.11 2432.13,1681.85 2422.90,1696.43"/>
    </edge>
    <edge id=":bray_14" function="internal">
        <lane id=":bray_14_0" index="0" speed="10.00" length="49.80" shape="2426.82,1651.71 2435.03,1658.74 2433.70,1668.12 2425.66,1678.79 2413.74,1689.68"/>
    </edge>
    <edge id=":bray_15" function="internal">
        <lane id=":bray_15_0" index="0" speed="10.00" length="40.87" shape="2426.82,1651.71 2428.70,1657.82 2424.72,1668.66 2417.91,1679.88 2411.31,1687.13"/>
    </edge>
    <edge id=":bray_16" function="internal">
        <lane id=":bray_16_0" index="0" speed="10.00" length="48.11" shape="2426.82,1651.71 2432.28,1656.76 2424.46,1660.71 2409.32,1663.41 2392.85,1664.75"/>
    </edge>
    <edge id=":bray_17" function="internal">
        <lane id=":bray_17_0" index="0" speed="6.88" length="21.89" shape="2426.82,1651.71 2418.50,1648.52 2415.19,1647.51 2416.88,1648.67 2423.58,1652.00"/>
    </edge>
    <edge id=":bray_18" function="internal">
        <lane id=":bray_18_0" index="0" speed="6.10" length="15.18" shape="2422.72,1656.74 2428.04,1657.04 2429.96,1656.35 2428.47,1654.68 2423.58,1652.00"/>
    </edge>
    <edge id=":bray_19" function="internal">
        <lane id=":bray_19_0" index="0" speed="7.38" length="20.51" shape="2422.72,1656.74 2430.09,1656.97 2433.64,1655.56 2433.36,1652.51 2429.26,1647.80"/>
    </edge>
    <edge id=":bray_20" function="internal">
        <lane id=":bray_20_0" index="0" speed="7.55" length="21.13" shape="2422.72,1656.74 2430.24,1656.95 2433.93,1655.43 2433.78,1652.18 2429.80,1647.21"/>
    </edge>
    <edge id=":bray_21" function="internal">
        <lane id=":bray_21_0" index="0" speed="7.60" length="21.36" shape="2422.72,1656.74 2430.29,1656.94 2434.03,1655.38 2433.93,1652.07 2430.00,1646.99"/>
    </edge>
    <edge id=":bray_22" function="internal">
        <lane id=":bray_22_0" index="0" speed="10.00" length="47.46" shape="2422.72,1656.74 2435.10,1660.22 2441.52,1667.16 2443.16,1677.72 2441.20,1692.04"/>
    </edge>
    <edge id=":bray_23" function="internal">
        <lane id=":bray_23_0" index="0" speed="10.00" length="50.37" shape="2422.72,1656.74 2433.73,1661.46 2435.75,1670.76 2431.31,1682.98 2422.90,1696.43"/>
    </edge>
    <edge id=":bray_24" function="internal">
        <lane id=":bray_24_0" index="0" speed="10.00" length="44.64" shape="2422.72,1656.74 2431.32,1661.09 2430.78,1669.49 2423.97,1679.75 2413.74,1689.68"/>
    </edge>
    <edge id=":bray_25" function="internal">
        <lane id=":bray_25_0" index="0" speed="10.00" length="42.71" shape="2422.72,1656.74 2430.57,1660.90 2429.28,1668.83 2421.86,1678.31 2411.31,1687.13"/>
    </edge>
    <edge id=":bray_26" function="internal">
        <lane id=":bray_26_0" index="0" speed="9.32" length="40.82" shape="2422.72,1656.74 2427.67,1658.71 2420.62,1661.21 2407.16,1663.48 2392.85,1664.75"/>
    </edge>
    <edge id=":bray_27" function="internal">
        <lane id=":bray_27_0" index="0" speed="9.33" length="35.95" shape="2392.59,1658.36 2409.82,1657.34 2420.73,1655.94 2425.31,1654.17 2423.58,1652.00"/>
    </edge>
    <edge id=":bray_28" function="internal">
        <lane id=":bray_28_0" index="0" speed="10.00" length="43.05" shape="2392.59,1658.36 2412.18,1657.00 2424.82,1654.79 2430.52,1651.72 2429.26,1647.80"/>
    </edge>
    <edge id=":bray_29" function="internal">
        <lane id=":bray_29_0" index="0" speed="10.00" length="43.84" shape="2392.59,1658.36 2412.38,1656.96 2425.18,1654.63 2430.99,1651.38 2429.80,1647.21"/>
    </edge>
    <edge id=":bray_30" function="internal">
        <lane id=":bray_30_0" index="0" speed="10.00" length="44.12" shape="2392.59,1658.36 2412.45,1656.94 2425.30,1654.57 2431.15,1651.26 2430.00,1646.99"/>
    </edge>
    <edge id=":bray_31" function="internal">
        <lane id=":bray_31_0" index="0" speed="10.00" length="71.69" shape="2392.59,1658.36 2414.91,1658.85 2431.53,1663.47 2440.84,1673.95 2441.20,1692.04"/>
    </edge>
    <edge id=":bray_32" function="internal">
        <lane id=":bray_32_0" index="0" speed="10.00" length="48.49" shape="2392.72,1661.56 2401.90,1665.83 2413.06,1676.14 2421.60,1687.87 2422.90,1696.43"/>
    </edge>
    <edge id=":bray_33" function="internal">
        <lane id=":bray_33_0" index="0" speed="9.95" length="38.41" shape="2392.72,1661.56 2400.71,1665.00 2409.13,1673.36 2414.60,1682.85 2413.74,1689.68"/>
    </edge>
    <edge id=":bray_34" function="internal">
        <lane id=":bray_34_0" index="0" speed="10.00" length="42.63" shape="2392.72,1661.56 2405.05,1663.84 2414.00,1670.31 2416.96,1678.79 2411.31,1687.13"/>
    </edge>
    <edge id=":bray_35" function="internal">
        <lane id=":bray_35_0" index="0" speed="3.65" length="4.67" shape="2392.72,1661.56 2393.95,1662.31 2394.38,1663.09 2394.01,1663.91 2392.85,1664.75"/>
    </edge>
    <edge id=":bray_36" function="internal">
        <lane id=":bray_36_0" index="0" speed="8.32" length="31.55" shape="2411.76,1667.98 2417.66,1666.00 2416.47,1664.80 2408.20,1664.38 2392.85,1664.75"/>
    </edge>
    <edge id=":bray_37" function="internal">
        <lane id=":bray_37_0" index="0" speed="9.06" length="30.83" shape="2411.76,1667.98 2423.59,1664.19 2429.50,1660.26 2429.49,1656.20 2423.58,1652.00"/>
    </edge>
    <edge id=":bray_38" function="internal">