<?xml version="1.0" encoding="UTF-8"?>

<!-- generated on 2025-02-19 12:42:16 by Eclipse SUMO netconvert Version 1.18.0
<configuration xmlns:xsi="http://www.w3.org/2001/XMLSchema-instance" xsi:noNamespaceSchemaLocation="http://sumo.dlr.de/xsd/netconvertConfiguration.xsd">

    <input>
        <node-files value="nod.xml"/>
        <edge-files value="edge_xmls/07171.xml"/>
    </input>

    <output>
        <output-file value="networks/07171.net.xml"/>
    </output>

</configuration>
-->

<net version="1.16" junctionCornerDetail="5" limitTurnSpeed="5.50" xmlns:xsi="http://www.w3.org/2001/XMLSchema-instance" xsi:noNamespaceSchemaLocation="http://sumo.dlr.de/xsd/net_file.xsd">

    <location netOffset="-682.00,4368.00" convBoundary="0.00,0.00,2498.00,3881.00" origBoundary="682.00,-4368.00,3180.00,-487.00" projParameter="!"/>

    <edge id=":antrim_0" function="internal">
        <lane id=":antrim_0_0" index="0" speed="10.00" length="36.68" shape="2288.36,3453.80 2286.68,3462.85 2282.77,3473.95 2277.90,3483.00 2273.32,3485.92"/>
    </edge>
    <edge id=":antrim_1" function="internal">
        <lane id=":antrim_1_0" index="0" speed="8.85" length="29.38" shape="2288.36,3453.80 2285.58,3460.36 2279.26,3465.99 2271.97,3468.76 2266.31,3466.77"/>
    </edge>
    <edge id=":antrim_2" function="internal">
        <lane id=":antrim_2_0" index="0" speed="8.84" length="29.33" shape="2288.36,3453.80 2285.58,3460.35 2279.27,3465.96 2271.99,3468.73 2266.35,3466.74"/>
    </edge>
    <edge id=":antrim_3" function="internal">
        <lane id=":antrim_3_0" index="0" speed="8.46" length="27.43" shape="2288.36,3453.80 2285.70,3459.91 2279.68,3465.14 2272.84,3467.67 2267.72,3465.66"/>
    </edge>
    <edge id=":antrim_4" function="internal">
        <lane id=":antrim_4_0" index="0" speed="8.04" length="25.35" shape="2288.36,3453.80 2285.83,3459.43 2280.15,3464.22 2273.78,3466.48 2269.21,3464.48"/>
    </edge>
    <edge id=":antrim_5" function="internal">
        <lane id=":antrim_5_0" index="0" speed="5.57" length="13.07" shape="2288.36,3453.80 2286.98,3456.95 2284.01,3458.44 2280.91,3457.99 2279.15,3455.34"/>
    </edge>
    <edge id=":antrim_6" function="internal">
        <lane id=":antrim_6_0" index="0" speed="5.56" length="13.02" shape="2288.36,3453.80 2286.99,3456.94 2284.03,3458.41 2280.94,3457.97 2279.19,3455.33"/>
    </edge>
    <edge id=":antrim_7" function="internal">
        <lane id=":antrim_7_0" index="0" speed="5.55" length="13.51" shape="2288.36,3453.80 2288.41,3448.79 2288.28,3447.14 2287.96,3448.86 2287.46,3453.94"/>
    </edge>
    <edge id=":antrim_8" function="internal">
        <lane id=":antrim_8_0" index="0" speed="3.67" length="4.74" shape="2288.36,3453.80 2287.74,3455.13 2287.00,3455.65 2286.13,3455.37 2285.15,3454.29"/>
    </edge>
    <edge id=":antrim_9" function="internal">
        <lane id=":antrim_9_0" index="0" speed="3.78" length="5.00" shape="2286.93,3454.02 2287.00,3455.86 2287.11,3456.46 2287.27,3455.82 2287.46,3453.94"/>
    </edge>
    <edge id=":antrim_10" function="internal">
        <lane id=":antrim_10_0" index="0" speed="10.00" length="40.13" shape="2286.93,3454.02 2286.64,3467.76 2284.74,3478.88 2280.53,3485.55 2273.32,3485.92"/>
    </edge>
    <edge id=":antrim_11" function="internal">
        <lane id=":antrim_11_0" index="0" speed="8.56" length="27.91" shape="2286.93,3454.02 2284.48,3460.31 2278.56,3465.80 2271.68,3468.59 2266.31,3466.77"/>
    </edge>
    <edge id=":antrim_12" function="internal">
        <lane id=":antrim_12_0" index="0" speed="8.55" length="27.86" shape="2286.93,3454.02 2284.48,3460.30 2278.58,3465.78 2271.70,3468.56 2266.35,3466.74"/>
    </edge>
    <edge id=":antrim_13" function="internal">
        <lane id=":antrim_13_0" index="0" speed="8.17" length="25.94" shape="2286.93,3454.02 2284.59,3459.86 2278.99,3464.95 2272.55,3467.48 2267.72,3465.66"/>
    </edge>
    <edge id=":antrim_14" function="internal">
        <lane id=":antrim_14_0" index="0" speed="7.76" length="23.84" shape="2286.93,3454.02 2284.72,3459.37 2279.46,3464.02 2273.50,3466.29 2269.21,3464.48"/>
    </edge>
    <edge id=":antrim_15" function="internal">
        <lane id=":antrim_15_0" index="0" speed="4.80" length="9.32" shape="2286.93,3454.02 2285.79,3455.70 2283.21,3456.64 2280.55,3456.60 2279.15,3455.34"/>
    </edge>
    <edge id=":antrim_16" function="internal">
        <lane id=":antrim_16_0" index="0" speed="9.46" length="43.93" shape="2286.93,3454.02 2286.51,3437.63 2286.07,3432.22 2285.61,3437.77 2285.15,3454.29"/>
    </edge>
    <edge id=":antrim_17" function="internal">
        <lane id=":antrim_17_0" index="0" speed="5.23" length="11.47" shape="2286.93,3454.02 2285.49,3457.25 2283.72,3458.55 2281.62,3457.90 2279.19,3455.33"/>
    </edge>
    <edge id=":antrim_18" function="internal">
        <lane id=":antrim_18_0" index="0" speed="6.45" length="18.19" shape="2281.77,3454.81 2283.10,3461.32 2284.11,3463.41 2284.79,3461.07 2285.15,3454.29"/>
    </edge>
    <edge id=":antrim_19" function="internal">
        <lane id=":antrim_19_0" index="0" speed="7.27" length="23.10" shape="2281.77,3454.81 2283.52,3462.90 2285.05,3465.44 2286.37,3462.46 2287.46,3453.94"/>
    </edge>
    <edge id=":antrim_20" function="internal">
        <lane id=":antrim_20_0" index="0" speed="10.00" length="38.38" shape="2281.77,3454.81 2283.45,3467.77 2283.28,3478.72 2280.24,3485.50 2273.32,3485.92"/>
    </edge>
    <edge id=":antrim_21" function="internal">
        <lane id=":antrim_21_0" index="0" speed="7.54" length="22.68" shape="2281.77,3454.81 2280.39,3460.11 2275.97,3465.11 2270.59,3467.96 2266.31,3466.77"/>
    </edge>
    <edge id=":antrim_22" function="internal">
        <lane id=":antrim_22_0" index="0" speed="7.53" length="22.62" shape="2281.77,3454.81 2280.39,3460.09 2275.99,3465.09 2270.62,3467.93 2266.35,3466.74"/>
    </edge>
    <edge id=":antrim_23" function="internal">
        <lane id=":antrim_23_0" index="0" speed="7.69" length="24.26" shape="2281.77,3454.81 2281.07,3461.74 2277.49,3466.91 2272.53,3468.74 2267.72,3465.66"/>
    </edge>
    <edge id=":antrim_24" function="internal">
        <lane id=":antrim_24_0" index="0" speed="7.23" length="21.77" shape="2281.77,3454.81 2281.08,3461.04 2277.76,3465.73 2273.31,3467.37 2269.21,3464.48"/>
    </edge>
    <edge id=":antrim_25" function="internal">
        <lane id=":antrim_25_0" index="0" speed="10.00" length="159.46" shape="2281.77,3454.81 2271.53,3395.93 2267.68,3376.39 2270.24,3396.19 2279.19,3455.33"/>
    </edge>
    <edge id=":antrim_26" function="internal">
        <lane id=":antrim_26_0" index="0" speed="3.45" length="3.90" shape="2281.77,3454.81 2281.32,3455.92 2280.73,3456.38 2280.01,3456.19 2279.15,3455.34"/>
    </edge>
    <edge id=":antrim_27" function="internal">
        <lane id=":antrim_27_0" index="0" speed="4.48" length="7.87" shape="2278.25,3455.62 2279.10,3458.41 2279.53,3459.29 2279.55,3458.27 2279.15,3455.34"/>
    </edge>
    <edge id=":antrim_28" function="internal">
        <lane id=":antrim_28_0" index="0" speed="4.53" length="8.10" shape="2278.25,3455.62 2279.12,3458.49 2279.57,3459.40 2279.59,3458.34 2279.19,3455.33"/>
    </edge>
    <edge id=":antrim_29" function="internal">
        <lane id=":antrim_29_0" index="0" speed="7.56" length="24.79" shape="2278.25,3455.62 2281.07,3464.02 2283.17,3466.60 2284.52,3463.36 2285.15,3454.29"/>
    </edge>
    <edge id=":antrim_30" function="internal">
        <lane id=":antrim_30_0" index="0" speed="8.04" length="27.57" shape="2278.25,3455.62 2281.42,3464.72 2284.01,3467.47 2286.03,3463.87 2287.46,3453.94"/>
    </edge>
    <edge id=":antrim_31" function="internal">
        <lane id=":antrim_31_0" index="0" speed="9.84" length="32.71" shape="2278.25,3455.62 2279.42,3464.31 2279.15,3474.91 2277.19,3483.43 2273.32,3485.92"/>
    </edge>
    <edge id=":antrim_32" function="internal">
        <lane id=":antrim_32_0" index="0" speed="6.82" length="19.03" shape="2278.25,3455.62 2277.49,3460.17 2274.11,3464.76 2269.82,3467.57 2266.31,3466.77"/>
    </edge>
    <edge id=":antrim_33" function="internal">
        <lane id=":antrim_33_0" index="0" speed="6.81" length="18.97" shape="2278.25,3455.62 2277.49,3460.16 2274.12,3464.74 2269.84,3467.54 2266.35,3466.74"/>
    </edge>
    <edge id=":antrim_34" function="internal">
        <lane id=":antrim_34_0" index="0" speed="6.41" length="16.98" shape="2278.25,3455.62 2277.55,3459.72 2274.52,3463.88 2270.72,3466.43 2267.72,3465.66"/>
    </edge>
    <edge id=":antrim_35" function="internal">
        <lane id=":antrim_35_0" index="0" speed="6.43" length="17.50" shape="2278.25,3455.62 2278.16,3460.71 2275.82,3464.85 2272.43,3466.59 2269.21,3464.48"/>
    </edge>
    <edge id=":antrim_36" function="internal">
        <lane id=":antrim_36_0" index="0" speed="5.53" length="12.99" shape="2277.32,3455.91 2278.87,3460.45 2279.69,3461.86 2279.78,3460.16 2279.15,3455.34"/>
    </edge>
    <edge id=":antrim_37" function="internal">
        <lane id=":antrim_37_0" index="0" speed="5.56" length="13.15" shape="2277.32,3455.91 2278.89,3460.50 2279.72,3461.93 2279.82,3460.21 2279.19,3455.33"/>
    </edge>
    <edge id=":antrim_38" function="internal">
        <lane id=":antrim_38_0" index="0" speed="7.76" length="25.96" shape="2277.32,3455.91 2280.54,3464.54 2282.92,3467.15 2284.46,3463.74 2285.15,3454.29"/>
    </edge>
    <edge id=":antrim_39" function="internal">
        <lane id=":antrim_39_0" index="0" speed="8.21" length="28.48" shape="2277.32,3455.91 2280.88,3465.12 2283.75,3467.86 2285.95,3464.14 2287.46,3453.94"/>
    </edge>
    <edge id=":antrim_40" function="internal">
        <lane id=":antrim_40_0" index="0" speed="10.00" length="37.07" shape="2277.32,3455.91 2280.60,3468.04 2281.95,3478.73 2279.99,3485.50 2273.32,3485.92"/>
    </edge>
    <edge id=":antrim_41" function="internal">
        <lane id=":antrim_41_0" index="0" speed="6.62" length="18.03" shape="2277.32,3455.91 2276.70,3460.25 2273.60,3464.70 2269.60,3467.47 2266.31,3466.77"/>
    </edge>
    <edge id=":antrim_42" function="internal">
        <lane id=":antrim_42_0" index="0" speed="6.61" length="17.98" shape="2277.32,3455.91 2276.70,3460.24 2273.61,3464.68 2269.63,3467.44 2266.35,3466.74"/>
    </edge>
    <edge id=":antrim_43" function="internal">
        <lane id=":antrim_43_0" index="0" speed="5.76" length="13.79" shape="2277.32,3455.91 2276.84,3459.31 2274.47,3462.87 2271.50,3465.09 2269.21,3464.48"/>
    </edge>
    <edge id=":antrim_44" function="internal">
        <lane id=":antrim_44_0" index="0" speed="6.86" length="19.99" shape="2277.32,3455.91 2278.58,3461.95 2277.39,3465.59 2273.77,3466.82 2267.72,3465.66"/>
    </edge>
    <edge id=":antrim_45" function="internal">
        <lane id=":antrim_45_0" index="0" speed="7.86" length="25.93" shape="2271.85,3462.68 2276.56,3469.20 2279.34,3470.15 2280.21,3465.53 2279.15,3455.34"/>
    </edge>
    <edge id=":antrim_46" function="internal">
        <lane id=":antrim_46_0" index="0" speed="7.86" length="25.97" shape="2271.85,3462.68 2276.57,3469.21 2279.36,3470.16 2280.23,3465.53 2279.19,3455.33"/>
    </edge>
    <edge id=":antrim_47" function="internal">
        <lane id=":antrim_47_0" index="0" speed="8.80" length="30.72" shape="2271.85,3462.68 2277.43,3469.96 2281.51,3470.99 2284.08,3465.76 2285.15,3454.29"/>
    </edge>
    <edge id=":antrim_48" function="internal">
        <lane id=":antrim_48_0" index="0" speed="9.15" length="32.42" shape="2271.85,3462.68 2277.70,3470.13 2282.24,3471.15 2285.50,3465.76 2287.46,3453.94"/>
    </edge>
    <edge id=":antrim_49" function="internal">
        <lane id=":antrim_49_0" index="0" speed="8.97" length="30.65" shape="2271.85,3462.68 2276.62,3471.61 2279.65,3480.16 2279.14,3485.77 2273.32,3485.92"/>
    </edge>
    <edge id=":antrim_50" function="internal">
        <lane id=":antrim_50_0" index="0" speed="4.54" length="8.14" shape="2271.85,3462.68 2271.69,3464.40 2270.07,3466.13 2267.95,3467.17 2266.31,3466.77"/>
    </edge>
    <edge id=":antrim_51" function="internal">
        <lane id=":antrim_51_0" index="0" speed="4.86" length="9.62" shape="2271.85,3462.68 2272.16,3465.10 2270.73,3467.04 2268.48,3467.82 2266.35,3466.74"/>
    </edge>
    <edge id=":antrim_52" function="internal">
        <lane id=":antrim_52_0" index="0" speed="4.02" length="6.04" shape="2271.85,3462.68 2271.72,3463.95 2270.48,3465.24 2268.90,3465.99 2267.72,3465.66"/>
    </edge>
    <edge id=":antrim_53" function="internal">
        <lane id=":antrim_53_0" index="0" speed="3.65" length="4.68" shape="2271.85,3462.68 2271.87,3464.12 2271.43,3464.90 2270.55,3465.02 2269.21,3464.48"/>
    </edge>
    <edge id=":antrim_54" function="internal">
        <lane id=":antrim_54_0" index="0" speed="3.50" length="3.95" shape="2268.82,3464.79 2269.76,3465.91 2270.13,3466.24 2269.95,3465.76 2269.21,3464.48"/>
    </edge>
    <edge id=":antrim_55" function="internal">
        <lane id=":antrim_55_0" index="0" speed="8.50" length="29.19" shape="2268.82,3464.79 2274.97,3471.12 2278.74,3471.66 2280.13,3466.40 2279.15,3455.34"/>
    </edge>
    <edge id=":antrim_56" function="internal">
        <lane id=":antrim_56_0" index="0" speed="8.51" length="29.21" shape="2268.82,3464.79 2274.97,3471.13 2278.75,3471.67 2280.16,3466.40 2279.19,3455.33"/>
    </edge>
    <edge id=":antrim_57" function="internal">
        <lane id=":antrim_57_0" index="0" speed="9.39" length="33.31" shape="2268.82,3464.79 2275.72,3471.53 2280.74,3472.04 2283.88,3466.29 2285.15,3454.29"/>
    </edge>
    <edge id=":antrim_58" function="internal">
        <lane id=":antrim_58_0" index="0" speed="9.74" length="34.90" shape="2268.82,3464.79 2275.96,3471.64 2281.45,3472.11 2285.28,3466.21 2287.46,3453.94"/>
    </edge>
    <edge id=":antrim_59" function="internal">
        <lane id=":antrim_59_0" index="0" speed="8.46" length="28.62" shape="2268.82,3464.79 2274.25,3472.65 2278.08,3480.47 2278.40,3485.73 2273.32,3485.92"/>
    </edge>
    <edge id=":antrim_60" function="internal">
        <lane id=":antrim_60_0" index="0" speed="3.23" length="3.15" shape="2268.82,3464.79 2266.35,3466.74"/>
    </edge>
    <edge id=":antrim_61" function="internal">
        <lane id=":antrim_61_0" index="0" speed="7.07" length="23.39" shape="2268.82,3464.79 2263.32,3457.99 2261.30,3455.87 2262.76,3458.43 2267.72,3465.66"/>
    </edge>
    <edge id=":antrim_62" function="internal">
        <lane id=":antrim_62_0" index="0" speed="3.65" length="4.67" shape="2268.82,3464.79 2268.94,3466.22 2268.56,3467.03 2267.69,3467.22 2266.31,3466.77"/>
    </edge>
    <edge id=":antrim_63" function="internal">
        <lane id=":antrim_63_0" index="0" speed="10.00" length="0.10" shape="2266.37,3466.73 2266.31,3466.77"/>
    </edge>
    <edge id=":antrim_64" function="internal">
        <lane id=":antrim_64_0" index="0" speed="10.00" length="0.10" shape="2266.37,3466.73 2266.35,3466.74"/>
    </edge>
    <edge id=":antrim_65" function="internal">
        <lane id=":antrim_65_0" index="0" speed="5.07" length="10.51" shape="2266.37,3466.73 2269.18,3469.44 2270.35,3470.16 2269.86,3468.90 2267.72,3465.66"/>
    </edge>
    <edge id=":antrim_66" function="internal">
        <lane id=":antrim_66_0" index="0" speed="6.17" length="16.21" shape="2266.37,3466.73 2270.69,3470.80 2272.60,3471.79 2272.11,3469.68 2269.21,3464.48"/>
    </edge>
    <edge id=":antrim_67" function="internal">
        <lane id=":antrim_67_0" index="0" speed="9.02" length="31.58" shape="2266.37,3466.73 2273.65,3472.61 2278.21,3472.68 2280.04,3466.92 2279.15,3455.34"/>
    </edge>
    <edge id=":antrim_68" function="internal">
        <lane id=":antrim_68_0" index="0" speed="9.02" length="31.61" shape="2266.37,3466.73 2273.66,3472.62 2278.22,3472.68 2280.07,3466.92 2279.19,3455.33"/>
    </edge>
    <edge id=":antrim_69" function="internal">
        <lane id=":antrim_69_0" index="0" speed="9.90" length="35.44" shape="2266.37,3466.73 2274.34,3472.86 2280.12,3472.84 2283.72,3466.65 2285.15,3454.29"/>
    </edge>
    <edge id=":antrim_70" function="internal">
        <lane id=":antrim_70_0" index="0" speed="10.00" length="36.99" shape="2266.37,3466.73 2274.57,3472.93 2280.81,3472.87 2285.11,3466.54 2287.46,3453.94"/>
    </edge>
    <edge id=":antrim_71" function="internal">
        <lane id=":antrim_71_0" index="0" speed="8.08" length="27.11" shape="2266.37,3466.73 2272.30,3473.70 2276.80,3480.86 2277.83,3485.75 2273.32,3485.92"/>
    </edge>
    <edge id=":antrim_72" function="internal">
        <lane id=":antrim_72_0" index="0" speed="8.76" length="28.86" shape="2251.31,3499.01 2263.91,3494.41 2271.78,3490.69 2274.92,3487.86 2273.32,3485.92"/>
    </edge>
    <edge id=":antrim_73" function="internal">
        <lane id=":antrim_73_0" index="0" speed="10.00" length="44.54" shape="2251.31,3499.01 2264.25,3492.95 2271.07,3485.55 2271.76,3476.83 2266.31,3466.77"/>
    </edge>
    <edge id=":antrim_74" function="internal">
        <lane id=":antrim_74_0" index="0" speed="10.00" length="44.57" shape="2251.31,3499.01 2264.26,3492.94 2271.08,3485.54 2271.78,3476.81 2266.35,3466.74"/>
    </edge>
    <edge id=":antrim_75" function="internal">
        <lane id=":antrim_75_0" index="0" speed="10.00" length="45.60" shape="2251.31,3499.01 2264.39,3492.86 2271.49,3485.25 2272.60,3476.19 2267.72,3465.66"/>
    </edge>
    <edge id=":antrim_76" function="internal">
        <lane id=":antrim_76_0" index="0" speed="10.00" length="46.78" shape="2251.31,3499.01 2264.53,3492.77 2271.92,3484.94 2273.48,3475.51 2269.21,3464.48"/>
    </edge>
    <edge id=":antrim_77" function="internal">
        <lane id=":antrim_77_0" index="0" speed="10.00" length="57.09" shape="2251.31,3499.01 2265.39,3492.12 2274.72,3482.55 2279.31,3470.28 2279.15,3455.34"/>
    </edge>
    <edge id=":antrim_78" function="internal">
        <lane id=":antrim_78_0" index="0" speed="10.00" length="57.11" shape="2251.31,3499.01 2265.39,3492.12 2274.73,3482.54 2279.33,3470.28 2279.19,3455.33"/>
    </edge>
    <edge id=":antrim_79" function="internal">
        <lane id=":antrim_79_0" index="0" speed="10.00" length="60.15" shape="2251.31,3499.01 2265.84,3492.03 2276.33,3482.25 2282.76,3469.67 2285.15,3454.29"/>
    </edge>
    <edge id=":antrim_80" function="internal">
        <lane id=":antrim_80_0" index="0" speed="10.00" length="61.45" shape="2251.31,3499.01 2266.01,3492.00 2276.94,3482.15 2284.09,3469.46 2287.46,3453.94"/>
    </edge>
    <edge id=":antrim_81" function="internal">
        <lane id=":antrim_81_0" index="0" speed="9.01" length="27.79" shape="2252.95,3502.64 2263.78,3496.05 2270.78,3491.06 2273.96,3487.69 2273.32,3485.92"/>
    </edge>
    <edge id=":antrim_82" function="internal">
        <lane id=":antrim_82_0" index="0" speed="10.00" length="44.85" shape="2252.95,3502.64 2264.52,3494.16 2270.61,3485.36 2271.21,3476.23 2266.31,3466.77"/>
    </edge>
    <edge id=":antrim_83" function="internal">
        <lane id=":antrim_83_0" index="0" speed="10.00" length="44.88" shape="2252.95,3502.64 2264.53,3494.16 2270.62,3485.35 2271.23,3476.21 2266.35,3466.74"/>
    </edge>
    <edge id=":antrim_84" function="internal">
        <lane id=":antrim_84_0" index="0" speed="10.00" length="45.95" shape="2252.95,3502.64 2264.71,3494.04 2271.09,3485.01 2272.09,3475.55 2267.72,3465.66"/>
    </edge>
    <edge id=":antrim_85" function="internal">
        <lane id=":antrim_85_0" index="0" speed="10.00" length="47.18" shape="2252.95,3502.64 2264.91,3493.90 2271.60,3484.63 2273.03,3474.83 2269.21,3464.48"/>
    </edge>
    <edge id=":antrim_86" function="internal">
        <lane id=":antrim_86_0" index="0" speed="10.00" length="59.63" shape="2254.56,3505.41 2267.23,3495.81 2275.55,3484.27 2279.53,3470.78 2279.15,3455.34"/>
    </edge>
    <edge id=":antrim_87" function="internal">
        <lane id=":antrim_87_0" index="0" speed="10.00" length="59.65" shape="2254.56,3505.41 2267.23,3495.81 2275.56,3484.27 2279.55,3470.77 2279.19,3455.33"/>
    </edge>
    <edge id=":antrim_88" function="internal">
        <lane id=":antrim_88_0" index="0" speed="10.00" length="62.39" shape="2254.56,3505.41 2267.67,3495.71 2277.14,3483.96 2282.96,3470.15 2285.15,3454.29"/>
    </edge>
    <edge id=":antrim_89" function="internal">
        <lane id=":antrim_89_0" index="0" speed="10.00" length="63.58" shape="2254.56,3505.41 2267.83,3495.68 2277.74,3483.85 2284.29,3469.94 2287.46,3453.94"/>
    </edge>
    <edge id=":athlone_0" function="internal">
        <lane id=":athlone_0_0" index="0" speed="5.31" length="10.09" shape="1254.79,1981.31 1253.91,1978.08 1252.82,1976.99 1251.51,1978.03 1249.99,1981.22"/>
    </edge>
    <edge id=":athlone_1" function="internal">
        <lane id=":athlone_1_0" index="0" speed="10.00" length="28.83" shape="1254.79,1981.31 1253.37,1973.36 1251.72,1965.17 1249.80,1958.11 1247.56,1953.55"/>
    </edge>
    <edge id=":athlone_2" function="internal">
        <lane id=":athlone_2_0" index="0" speed="10.00" length="37.28" shape="1254.79,1981.31 1254.48,1972.77 1255.83,1962.87 1258.24,1953.10 1261.14,1944.93"/>
    </edge>
    <edge id=":athlone_3" function="internal">
        <lane id=":athlone_3_0" index="0" speed="10.00" length="36.74" shape="1254.79,1981.31 1254.24,1972.68 1255.72,1964.09 1259.22,1955.54 1264.75,1947.04"/>
    </edge>
    <edge id=":athlone_4" function="internal">
        <lane id=":athlone_4_0" index="0" speed="10.00" length="32.46" shape="1257.94,1980.74 1257.11,1971.23 1258.32,1963.17 1261.56,1956.55 1266.84,1951.38"/>
    </edge>
    <edge id=":athlone_5" function="internal">
        <lane id=":athlone_5_0" index="0" speed="10.00" length="29.03" shape="1257.94,1980.74 1257.12,1971.37 1258.45,1964.20 1261.92,1959.23 1267.53,1956.44"/>
    </edge>
    <edge id=":athlone_6" function="internal">
        <lane id=":athlone_6_0" index="0" speed="9.37" length="26.85" shape="1257.94,1980.74 1257.39,1972.68 1259.07,1966.52 1263.26,1963.15 1270.26,1963.46"/>
    </edge>
    <edge id=":athlone_7" function="internal">
        <lane id=":athlone_7_0" index="0" speed="7.94" length="22.23" shape="1257.94,1980.74 1257.78,1974.02 1259.62,1968.66 1263.24,1966.01 1268.39,1967.45"/>
    </edge>
    <edge id=":athlone_8" function="internal">
        <lane id=":athlone_8_0" index="0" speed="6.53" length="16.81" shape="1257.94,1980.74 1257.97,1975.51 1259.54,1971.04 1262.11,1968.89 1265.16,1970.60"/>
    </edge>
    <edge id=":athlone_9" function="internal">
        <lane id=":athlone_9_0" index="0" speed="8.22" length="20.56" shape="1263.48,1971.84 1260.04,1969.50 1256.64,1970.28 1253.30,1974.19 1249.99,1981.22"/>
    </edge>
    <edge id=":athlone_10" function="internal">
        <lane id=":athlone_10_0" index="0" speed="10.00" length="24.25" shape="1263.48,1971.84 1247.56,1953.55"/>
    </edge>
    <edge id=":athlone_11" function="internal">
        <lane id=":athlone_11_0" index="0" speed="10.00" length="28.59" shape="1263.48,1971.84 1259.83,1966.20 1258.22,1959.84 1258.66,1952.75 1261.14,1944.93"/>
    </edge>
    <edge id=":athlone_12" function="internal">
        <lane id=":athlone_12_0" index="0" speed="10.00" length="27.23" shape="1263.48,1971.84 1259.98,1966.25 1259.02,1960.26 1260.61,1953.85 1264.75,1947.04"/>
    </edge>
    <edge id=":athlone_13" function="internal">
        <lane id=":athlone_13_0" index="0" speed="9.58" length="22.58" shape="1263.48,1971.84 1261.28,1967.02 1261.32,1961.17 1263.29,1955.53 1266.84,1951.38"/>
    </edge>
    <edge id=":athlone_14" function="internal">
        <lane id=":athlone_14_0" index="0" speed="7.70" length="17.83" shape="1263.48,1971.84 1261.90,1967.94 1262.26,1963.14 1264.23,1958.84 1267.53,1956.44"/>
    </edge>
    <edge id=":athlone_15" function="internal">
        <lane id=":athlone_15_0" index="0" speed="5.84" length="12.49" shape="1263.48,1971.84 1263.05,1969.25 1264.68,1966.27 1267.41,1963.97 1270.26,1963.46"/>
    </edge>
    <edge id=":athlone_16" function="internal">
        <lane id=":athlone_16_0" index="0" speed="7.25" length="24.45" shape="1263.48,1971.84 1269.66,1978.60 1272.00,1980.65 1270.50,1977.99 1265.16,1970.60"/>
    </edge>
    <edge id=":athlone_17" function="internal">
        <lane id=":athlone_17_0" index="0" speed="4.95" length="9.62" shape="1263.48,1971.84 1263.06,1968.90 1263.74,1967.19 1265.52,1966.71 1268.39,1967.45"/>
    </edge>
    <edge id=":athlone_18" function="internal">
        <lane id=":athlone_18_0" index="0" speed="10.00" length="0.84" shape="1250.12,1981.24 1250.18,1980.94 1250.17,1980.83 1250.11,1980.93 1249.99,1981.22"/>
    </edge>
    <edge id=":athlone_19" function="internal">
        <lane id=":athlone_19_0" index="0" speed="10.00" length="28.65" shape="1250.12,1981.24 1251.52,1972.09 1251.56,1964.42 1250.24,1958.24 1247.56,1953.55"/>
    </edge>
    <edge id=":athlone_20" function="internal">
        <lane id=":athlone_20_0" index="0" speed="10.00" length="38.49" shape="1250.12,1981.24 1251.26,1974.60 1253.07,1964.07 1255.42,1952.73 1258.20,1943.67"/>
    </edge>
    <edge id=":athlone_21" function="internal">
        <lane id=":athlone_21_0" index="0" speed="10.00" length="37.26" shape="1250.12,1981.24 1252.41,1974.39 1256.67,1963.79 1261.32,1953.37 1264.75,1947.04"/>
    </edge>
    <edge id=":athlone_22" function="internal">
        <lane id=":athlone_22_0" index="0" speed="10.00" length="34.40" shape="1250.12,1981.24 1252.59,1974.92 1257.33,1965.56 1262.65,1956.58 1266.84,1951.38"/>
    </edge>
    <edge id=":athlone_23" function="internal">
        <lane id=":athlone_23_0" index="0" speed="10.00" length="31.87" shape="1250.12,1981.24 1252.90,1971.61 1256.73,1964.27 1261.61,1959.21 1267.53,1956.44"/>
    </edge>
    <edge id=":athlone_24" function="internal">
        <lane id=":athlone_24_0" index="0" speed="10.00" length="30.87" shape="1250.12,1981.24 1253.13,1971.78 1257.49,1965.67 1263.20,1962.89 1270.26,1963.46"/>
    </edge>
    <edge id=":athlone_25" function="internal">
        <lane id=":athlone_25_0" index="0" speed="9.87" length="28.67" shape="1250.12,1981.24 1252.60,1972.84 1256.28,1967.01 1261.46,1964.85 1268.39,1967.45"/>
    </edge>
    <edge id=":athlone_26" function="internal">
        <lane id=":athlone_26_0" index="0" speed="8.33" length="24.05" shape="1250.12,1981.24 1252.50,1974.20 1256.13,1969.09 1260.52,1967.40 1265.16,1970.60"/>
    </edge>
    <edge id=":belfast_0" function="internal">
        <lane id=":belfast_0_0" index="0" speed="7.31" length="24.64" shape="2492.49,3329.38 2490.26,3320.63 2489.07,3317.89 2488.92,3321.17 2489.80,3330.47"/>
    </edge>
    <edge id=":belfast_1" function="internal">
        <lane id=":belfast_1_0" index="0" speed="4.39" length="7.42" shape="2492.49,3329.38 2493.17,3332.00 2493.55,3332.81 2493.63,3331.81 2493.42,3329.00"/>
    </edge>
    <edge id=":belfast_2" function="internal">
        <lane id=":belfast_2_0" index="0" speed="10.00" length="52.12" shape="2492.49,3329.38 2494.73,3345.31 2493.37,3358.43 2488.40,3368.74 2479.82,3376.25"/>
    </edge>
    <edge id=":belfast_3" function="internal">
        <lane id=":belfast_3_0" index="0" speed="10.00" length="48.10" shape="2492.49,3329.38 2494.27,3343.77 2492.23,3355.33 2486.37,3364.07 2476.68,3369.97"/>
    </edge>
    <edge id=":belfast_4" function="internal">
        <lane id=":belfast_4_0" index="0" speed="10.00" length="36.72" shape="2492.49,3329.38 2490.71,3337.18 2484.20,3345.63 2475.78,3351.82 2468.25,3352.83"/>
    </edge>
    <edge id=":belfast_5" function="internal">
        <lane id=":belfast_5_0" index="0" speed="9.37" length="31.13" shape="2492.49,3329.38 2491.09,3336.34 2485.45,3342.86 2477.98,3346.95 2471.09,3346.56"/>
    </edge>
    <edge id=":belfast_6" function="internal">
        <lane id=":belfast_6_0" index="0" speed="7.81" length="24.50" shape="2492.49,3329.38 2492.04,3336.09 2488.35,3340.82 2482.99,3342.32 2477.53,3339.36"/>
    </edge>
    <edge id=":belfast_7" function="internal">
        <lane id=":belfast_7_0" index="0" speed="7.19" length="20.56" shape="2492.49,3329.38 2491.30,3333.95 2487.08,3338.09 2481.88,3340.31 2477.76,3339.16"/>
    </edge>
    <edge id=":belfast_8" function="internal">
        <lane id=":belfast_8_0" index="0" speed="3.62" length="4.49" shape="2492.49,3329.38 2488.33,3331.07"/>
    </edge>
    <edge id=":belfast_9" function="internal">
        <lane id=":belfast_9_0" index="0" speed="3.70" length="4.86" shape="2492.49,3329.38 2492.19,3330.85 2491.57,3331.55 2490.64,3331.48 2489.40,3330.63"/>
    </edge>
    <edge id=":belfast_10" function="internal">
        <lane id=":belfast_10_0" index="0" speed="5.04" length="10.38" shape="2491.31,3329.86 2490.21,3326.25 2489.59,3325.15 2489.45,3326.55 2489.80,3330.47"/>
    </edge>
    <edge id=":belfast_11" function="internal">
        <lane id=":belfast_11_0" index="0" speed="5.55" length="12.99" shape="2491.31,3329.86 2492.70,3334.34 2493.52,3335.70 2493.76,3333.92 2493.42,3329.00"/>
    </edge>
    <edge id=":belfast_12" function="internal">
        <lane id=":belfast_12_0" index="0" speed="10.00" length="51.62" shape="2491.31,3329.86 2494.14,3345.54 2493.16,3358.50 2488.39,3368.74 2479.82,3376.25"/>
    </edge>
    <edge id=":belfast_13" function="internal">
        <lane id=":belfast_13_0" index="0" speed="10.00" length="47.51" shape="2491.31,3329.86 2493.63,3344.03 2491.96,3355.44 2486.31,3364.09 2476.68,3369.97"/>
    </edge>
    <edge id=":belfast_14" function="internal">
        <lane id=":belfast_14_0" index="0" speed="9.81" length="32.98" shape="2491.31,3329.86 2490.06,3337.08 2484.36,3344.36 2476.68,3349.39 2469.48,3349.87"/>
    </edge>
    <edge id=":belfast_15" function="internal">
        <lane id=":belfast_15_0" index="0" speed="9.12" length="30.00" shape="2491.31,3329.86 2490.21,3336.63 2484.93,3342.99 2477.79,3346.96 2471.09,3346.56"/>
    </edge>
    <edge id=":belfast_16" function="internal">
        <lane id=":belfast_16_0" index="0" speed="6.98" length="19.50" shape="2491.31,3329.86 2490.31,3334.20 2486.37,3338.19 2481.46,3340.39 2477.53,3339.36"/>
    </edge>