<?xml version="1.0" encoding="UTF-8"?>

<!-- generated on 2025-02-19 12:42:22 by Eclipse SUMO netconvert Version 1.18.0
<configuration xmlns:xsi="http://www.w3.org/2001/XMLSchema-instance" xsi:noNamespaceSchemaLocation="http://sumo.dlr.de/xsd/netconvertConfiguration.xsd">

    <input>
        <node-files value="nod.xml"/>
        <edge-files value="edge_xmls/07192.xml"/>
    </input>

    <output>
        <output-file value="networks/07192.net.xml"/>
    </output>

</configuration>
-->

<net version="1.16" junctionCornerDetail="5" limitTurnSpeed="5.50" xmlns:xsi="http://www.w3.org/2001/XMLSchema-instance" xsi:noNamespaceSchemaLocation="http://sumo.dlr.de/xsd/net_file.xsd">

    <location netOffset="-682.00,4368.00" convBoundary="0.00,0.00,2498.00,3881.00" origBoundary="682.00,-4368.00,3180.00,-487.00" projParameter="!"/>

    <edge id=":antrim_0" function="internal">
        <lane id=":antrim_0_0" index="0" speed="6.29" length="12.44" shape="2292.60,3468.63 2292.55,3473.36 2293.39,3476.20 2295.11,3477.17 2297.73,3476.25"/>
    </edge>
    <edge id=":antrim_1" function="internal">
        <lane id=":antrim_1_0" index="0" speed="10.00" length="26.29" shape="2292.60,3468.63 2291.39,3477.38 2289.44,3484.26 2286.76,3489.26 2283.34,3492.39"/>
    </edge>
    <edge id=":antrim_2" function="internal">
        <lane id=":antrim_2_0" index="0" speed="10.00" length="38.56" shape="2292.60,3468.63 2289.19,3477.76 2282.13,3480.87 2272.87,3478.94 2262.89,3472.95"/>
    </edge>
    <edge id=":antrim_3" function="internal">
        <lane id=":antrim_3_0" index="0" speed="10.00" length="36.02" shape="2292.60,3468.63 2289.24,3476.81 2282.34,3479.11 2273.68,3476.49 2265.03,3469.93"/>
    </edge>
    <edge id=":antrim_4" function="internal">
        <lane id=":antrim_4_0" index="0" speed="8.94" length="29.13" shape="2292.60,3468.63 2289.05,3473.00 2281.56,3473.87 2273.21,3471.90 2267.10,3467.77"/>
    </edge>
    <edge id=":antrim_5" function="internal">
        <lane id=":antrim_5_0" index="0" speed="8.29" length="25.04" shape="2289.40,3468.55 2286.33,3472.25 2279.88,3472.86 2272.71,3471.02 2267.52,3467.36"/>
    </edge>
    <edge id=":antrim_6" function="internal">
        <lane id=":antrim_6_0" index="0" speed="8.59" length="27.72" shape="2289.40,3468.55 2286.65,3474.39 2281.10,3475.29 2274.52,3472.24 2268.70,3466.20"/>
    </edge>
    <edge id=":antrim_7" function="internal">
        <lane id=":antrim_7_0" index="0" speed="7.67" length="23.78" shape="2289.40,3468.55 2287.01,3472.90 2282.32,3472.28 2277.08,3468.14 2273.07,3461.91"/>
    </edge>
    <edge id=":antrim_8" function="internal">
        <lane id=":antrim_8_0" index="0" speed="6.33" length="17.03" shape="2289.40,3468.55 2287.77,3471.23 2284.69,3469.85 2281.50,3465.88 2279.55,3460.81"/>
    </edge>
    <edge id=":antrim_9" function="internal">
        <lane id=":antrim_9_0" index="0" speed="6.24" length="16.59" shape="2289.40,3468.55 2287.83,3471.12 2284.88,3469.69 2281.84,3465.73 2280.02,3460.74"/>
    </edge>
    <edge id=":antrim_10" function="internal">
        <lane id=":antrim_10_0" index="0" speed="4.17" length="6.65" shape="2289.40,3468.55 2288.21,3470.23 2287.06,3470.77 2285.94,3470.17 2284.84,3468.43"/>
    </edge>
    <edge id=":antrim_11" function="internal">
        <lane id=":antrim_11_0" index="0" speed="6.62" length="18.66" shape="2269.40,3465.51 2273.67,3470.37 2275.70,3471.39 2275.50,3468.57 2273.07,3461.91"/>
    </edge>
    <edge id=":antrim_12" function="internal">
        <lane id=":antrim_12_0" index="0" speed="7.91" length="25.13" shape="2269.40,3465.51 2275.27,3471.82 2278.92,3473.14 2280.35,3469.47 2279.55,3460.81"/>
    </edge>
    <edge id=":antrim_13" function="internal">
        <lane id=":antrim_13_0" index="0" speed="7.98" length="25.49" shape="2269.40,3465.51 2275.35,3471.88 2279.11,3473.20 2280.66,3469.49 2280.02,3460.74"/>
    </edge>
    <edge id=":antrim_14" function="internal">
        <lane id=":antrim_14_0" index="0" speed="8.16" length="24.71" shape="2269.40,3465.51 2276.03,3472.83 2280.81,3475.75 2283.75,3474.29 2284.84,3468.43"/>
    </edge>
    <edge id=":antrim_15" function="internal">
        <lane id=":antrim_15_0" index="0" speed="10.00" length="33.34" shape="2269.40,3465.51 2276.79,3473.26 2283.97,3477.63 2290.95,3478.62 2297.73,3476.25"/>
    </edge>
    <edge id=":antrim_16" function="internal">
        <lane id=":antrim_16_0" index="0" speed="10.00" length="31.57" shape="2269.40,3465.51 2276.58,3474.93 2281.88,3482.98 2284.42,3489.01 2283.34,3492.39"/>
    </edge>
    <edge id=":antrim_17" function="internal">
        <lane id=":antrim_17_0" index="0" speed="5.75" length="13.78" shape="2269.40,3465.51 2270.43,3468.96 2269.05,3472.11 2266.21,3473.82 2262.89,3472.95"/>
    </edge>
    <edge id=":antrim_18" function="internal">
        <lane id=":antrim_18_0" index="0" speed="4.66" length="8.74" shape="2269.40,3465.51 2269.96,3467.69 2268.93,3469.66 2267.04,3470.66 2265.03,3469.93"/>
    </edge>
    <edge id=":antrim_19" function="internal">
        <lane id=":antrim_19_0" index="0" speed="10.00" length="129.66" shape="2269.40,3465.51 2239.10,3427.60 2228.68,3415.27 2238.16,3428.52 2267.52,3467.36"/>
    </edge>
    <edge id=":antrim_20" function="internal">
        <lane id=":antrim_20_0" index="0" speed="5.38" length="12.53" shape="2269.40,3465.51 2266.46,3461.91 2265.37,3460.82 2266.11,3462.25 2268.70,3466.20"/>
    </edge>
    <edge id=":antrim_21" function="internal">
        <lane id=":antrim_21_0" index="0" speed="3.66" length="4.70" shape="2269.40,3465.51 2269.67,3466.94 2269.38,3467.79 2268.52,3468.06 2267.10,3467.77"/>
    </edge>
    <edge id=":antrim_22" function="internal">
        <lane id=":antrim_22_0" index="0" speed="2.89" length="1.98" shape="2267.25,3467.62 2266.73,3467.10 2266.53,3466.96 2266.65,3467.18 2267.10,3467.77"/>
    </edge>
    <edge id=":antrim_23" function="internal">
        <lane id=":antrim_23_0" index="0" speed="3.21" length="2.97" shape="2267.25,3467.62 2268.04,3468.39 2268.35,3468.60 2268.17,3468.26 2267.52,3467.36"/>
    </edge>
    <edge id=":antrim_24" function="internal">
        <lane id=":antrim_24_0" index="0" speed="4.27" length="6.79" shape="2267.25,3467.62 2265.46,3465.90 2264.72,3465.48 2265.02,3466.33 2266.38,3468.48"/>
    </edge>
    <edge id=":antrim_25" function="internal">
        <lane id=":antrim_25_0" index="0" speed="7.34" length="22.47" shape="2267.25,3467.62 2272.91,3472.66 2275.77,3473.39 2275.82,3469.81 2273.07,3461.91"/>
    </edge>
    <edge id=":antrim_26" function="internal">
        <lane id=":antrim_26_0" index="0" speed="8.38" length="27.24" shape="2267.25,3467.62 2274.14,3473.42 2278.48,3474.22 2280.29,3470.02 2279.55,3460.81"/>
    </edge>
    <edge id=":antrim_27" function="internal">
        <lane id=":antrim_27_0" index="0" speed="8.46" length="27.55" shape="2267.25,3467.62 2274.20,3473.46 2278.65,3474.26 2280.59,3470.02 2280.02,3460.74"/>
    </edge>
    <edge id=":antrim_28" function="internal">
        <lane id=":antrim_28_0" index="0" speed="8.58" length="26.21" shape="2267.25,3467.62 2274.81,3474.25 2280.26,3476.60 2283.61,3474.66 2284.84,3468.43"/>
    </edge>
    <edge id=":antrim_29" function="internal">
        <lane id=":antrim_29_0" index="0" speed="10.00" length="36.73" shape="2267.25,3467.62 2276.39,3475.59 2284.79,3480.14 2292.46,3481.27 2299.39,3478.98"/>
    </edge>
    <edge id=":antrim_30" function="internal">
        <lane id=":antrim_30_0" index="0" speed="10.00" length="29.92" shape="2267.25,3467.62 2272.73,3473.97 2278.52,3481.87 2282.70,3488.83 2283.34,3492.39"/>
    </edge>
    <edge id=":antrim_31" function="internal">
        <lane id=":antrim_31_0" index="0" speed="4.55" length="8.13" shape="2267.25,3467.62 2267.50,3469.34 2266.35,3471.43 2264.56,3472.94 2262.89,3472.95"/>
    </edge>
    <edge id=":antrim_32" function="internal">
        <lane id=":antrim_32_0" index="0" speed="3.65" length="4.68" shape="2267.25,3467.62 2267.56,3469.03 2267.29,3469.88 2266.45,3470.18 2265.03,3469.93"/>
    </edge>
    <edge id=":antrim_33" function="internal">
        <lane id=":antrim_33_0" index="0" speed="4.27" length="6.47" shape="2261.07,3477.86 2263.23,3478.55 2264.05,3478.49 2263.55,3477.67 2261.72,3476.09"/>
    </edge>
    <edge id=":antrim_34" function="internal">
        <lane id=":antrim_34_0" index="0" speed="7.39" length="22.33" shape="2261.07,3477.86 2268.33,3480.02 2271.41,3479.41 2270.31,3476.05 2265.03,3469.93"/>
    </edge>
    <edge id=":antrim_35" function="internal">
        <lane id=":antrim_35_0" index="0" speed="7.93" length="24.88" shape="2261.07,3477.86 2268.97,3480.08 2272.61,3479.13 2271.99,3475.03 2267.10,3467.77"/>
    </edge>
    <edge id=":antrim_36" function="internal">
        <lane id=":antrim_36_0" index="0" speed="8.03" length="25.33" shape="2261.07,3477.86 2269.08,3480.08 2272.82,3479.07 2272.30,3474.83 2267.52,3467.36"/>
    </edge>
    <edge id=":antrim_37" function="internal">
        <lane id=":antrim_37_0" index="0" speed="7.35" length="20.44" shape="2261.07,3477.86 2267.26,3479.49 2270.20,3478.47 2269.91,3474.80 2266.38,3468.48"/>
    </edge>
    <edge id=":antrim_38" function="internal">
        <lane id=":antrim_38_0" index="0" speed="9.37" length="31.29" shape="2261.07,3477.86 2270.08,3479.99 2275.09,3478.04 2276.09,3472.02 2273.07,3461.91"/>
    </edge>
    <edge id=":antrim_39" function="internal">
        <lane id=":antrim_39_0" index="0" speed="10.00" length="34.41" shape="2261.07,3477.86 2270.80,3480.04 2277.13,3477.93 2280.05,3471.51 2279.55,3460.81"/>
    </edge>
    <edge id=":antrim_40" function="internal">
        <lane id=":antrim_40_0" index="0" speed="10.00" length="34.66" shape="2261.07,3477.86 2270.85,3480.05 2277.27,3477.92 2280.33,3471.48 2280.02,3460.74"/>
    </edge>
    <edge id=":antrim_41" function="internal">
        <lane id=":antrim_41_0" index="0" speed="10.00" length="31.70" shape="2261.07,3477.86 2271.32,3480.59 2278.70,3479.93 2283.21,3475.87 2284.84,3468.43"/>
    </edge>
    <edge id=":antrim_42" function="internal">
        <lane id=":antrim_42_0" index="0" speed="10.00" length="39.58" shape="2261.07,3477.86 2272.75,3481.45 2283.03,3482.82 2291.91,3482.00 2299.39,3478.98"/>
    </edge>
    <edge id=":antrim_43" function="internal">
        <lane id=":antrim_43_0" index="0" speed="9.17" length="28.85" shape="2261.07,3477.86 2271.13,3481.91 2279.38,3485.93 2284.05,3489.56 2283.34,3492.39"/>
    </edge>
    <edge id=":antrim_44" function="internal">
        <lane id=":antrim_44_0" index="0" speed="5.88" length="13.18" shape="2264.51,3483.30 2267.51,3483.45 2268.05,3482.30 2266.12,3479.85 2261.72,3476.09"/>
    </edge>
    <edge id=":antrim_45" function="internal">
        <lane id=":antrim_45_0" index="0" speed="7.85" length="23.64" shape="2264.51,3483.30 2270.83,3483.66 2273.03,3481.55 2271.09,3476.97 2265.03,3469.93"/>
    </edge>
    <edge id=":antrim_46" function="internal">
        <lane id=":antrim_46_0" index="0" speed="8.33" length="25.59" shape="2264.51,3483.30 2271.26,3483.58 2273.94,3481.08 2272.56,3475.81 2267.10,3467.77"/>
    </edge>
    <edge id=":antrim_47" function="internal">
        <lane id=":antrim_47_0" index="0" speed="8.42" length="25.96" shape="2264.51,3483.30 2271.33,3483.56 2274.11,3480.99 2272.84,3475.59 2267.52,3467.36"/>
    </edge>
    <edge id=":antrim_48" function="internal">
        <lane id=":antrim_48_0" index="0" speed="8.69" length="27.04" shape="2264.51,3483.30 2271.53,3483.51 2274.57,3480.73 2273.63,3474.96 2268.70,3466.20"/>
    </edge>
    <edge id=":antrim_49" function="internal">
        <lane id=":antrim_49_0" index="0" speed="9.78" length="31.29" shape="2264.51,3483.30 2272.13,3483.31 2276.09,3479.74 2276.41,3472.61 2273.07,3461.91"/>
    </edge>
    <edge id=":antrim_50" function="internal">
        <lane id=":antrim_50_0" index="0" speed="10.00" length="33.80" shape="2264.51,3483.30 2272.77,3483.28 2278.03,3479.53 2280.29,3472.04 2279.55,3460.81"/>
    </edge>
    <edge id=":antrim_51" function="internal">
        <lane id=":antrim_51_0" index="0" speed="10.00" length="34.02" shape="2264.51,3483.30 2272.82,3483.28 2278.17,3479.51 2280.57,3472.00 2280.02,3460.74"/>
    </edge>
    <edge id=":antrim_52" function="internal">
        <lane id=":antrim_52_0" index="0" speed="10.00" length="29.94" shape="2264.51,3483.30 2273.25,3483.79 2279.56,3481.47 2283.42,3476.35 2284.84,3468.43"/>
    </edge>
    <edge id=":antrim_53" function="internal">
        <lane id=":antrim_53_0" index="0" speed="10.00" length="34.91" shape="2264.51,3483.30 2270.57,3483.32 2279.76,3482.07 2289.62,3479.67 2297.73,3476.25"/>
        <lane id=":antrim_53_1" index="1" speed="10.00" length="34.91" shape="2264.51,3483.30 2270.83,3483.75 2280.59,3483.44 2291.03,3481.98 2299.39,3478.98"/>
    </edge>
    <edge id=":antrim_55" function="internal">
        <lane id=":antrim_55_0" index="0" speed="8.09" length="24.06" shape="2264.51,3483.30 2273.11,3485.15 2280.45,3487.36 2284.53,3489.81 2283.34,3492.39"/>
    </edge>
    <edge id=":athlone_0" function="internal">
        <lane id=":athlone_0_0" index="0" speed="10.00" length="61.47" shape="1259.37,1988.01 1254.51,1978.22 1244.44,1961.23 1233.87,1944.50 1227.51,1935.52"/>
    </edge>
    <edge id=":athlone_1" function="internal">
        <lane id=":athlone_1_0" index="0" speed="10.00" length="62.28" shape="1259.37,1988.01 1254.87,1977.89 1245.62,1960.13 1235.93,1942.57 1230.12,1933.08"/>
    </edge>
    <edge id=":athlone_2" function="internal">
        <lane id=":athlone_2_0" index="0" speed="10.00" length="56.61" shape="1259.37,1988.01 1247.96,1932.56"/>
    </edge>
    <edge id=":athlone_3" function="internal">
        <lane id=":athlone_3_0" index="0" speed="10.00" length="40.88" shape="1259.37,1988.01 1257.69,1975.25 1257.73,1964.37 1259.49,1955.35 1262.96,1948.20"/>
    </edge>
    <edge id=":athlone_4" function="internal">
        <lane id=":athlone_4_0" index="0" speed="10.00" length="40.78" shape="1259.37,1988.01 1257.73,1975.26 1257.90,1964.42 1259.87,1955.50 1263.63,1948.49"/>
    </edge>
    <edge id=":athlone_5" function="internal">
        <lane id=":athlone_5_0" index="0" speed="10.00" length="36.44" shape="1259.37,1988.01 1259.98,1979.60 1263.50,1969.55 1268.80,1960.94 1274.78,1956.85"/>
    </edge>
    <edge id=":athlone_6" function="internal">
        <lane id=":athlone_6_0" index="0" speed="10.00" length="35.33" shape="1259.37,1988.01 1258.50,1977.34 1260.47,1969.06 1265.76,1964.45 1274.86,1964.79"/>
    </edge>
    <edge id=":athlone_7" function="internal">
        <lane id=":athlone_7_0" index="0" speed="3.61" length="4.51" shape="1259.37,1988.01 1259.92,1986.73 1260.61,1986.21 1261.44,1986.45 1262.41,1987.46"/>
    </edge>
    <edge id=":athlone_8" function="internal">
        <lane id=":athlone_8_0" index="0" speed="10.00" length="62.11" shape="1261.10,1987.69 1255.84,1977.99 1245.19,1961.09 1234.10,1944.46 1227.51,1935.52"/>
    </edge>
    <edge id=":athlone_9" function="internal">
        <lane id=":athlone_9_0" index="0" speed="10.00" length="62.83" shape="1261.10,1987.69 1256.20,1977.65 1246.37,1959.99 1236.16,1942.53 1230.12,1933.08"/>
    </edge>
    <edge id=":athlone_10" function="internal">
        <lane id=":athlone_10_0" index="0" speed="10.00" length="56.68" shape="1261.10,1987.69 1247.96,1932.56"/>
    </edge>
    <edge id=":athlone_11" function="internal">
        <lane id=":athlone_11_0" index="0" speed="10.00" length="40.61" shape="1261.10,1987.69 1258.65,1975.10 1258.15,1964.32 1259.58,1955.35 1262.96,1948.20"/>
    </edge>
    <edge id=":athlone_12" function="internal">
        <lane id=":athlone_12_0" index="0" speed="10.00" length="40.49" shape="1261.10,1987.69 1258.69,1975.10 1258.31,1964.37 1259.96,1955.50 1263.63,1948.49"/>
    </edge>
    <edge id=":athlone_13" function="internal">
        <lane id=":athlone_13_0" index="0" speed="10.00" length="35.63" shape="1261.10,1987.69 1261.16,1979.39 1264.05,1969.46 1268.88,1960.92 1274.78,1956.85"/>
    </edge>
    <edge id=":athlone_14" function="internal">
        <lane id=":athlone_14_0" index="0" speed="9.70" length="29.98" shape="1261.10,1987.69 1261.13,1980.13 1263.96,1972.08 1268.80,1966.11 1274.86,1964.79"/>
    </edge>
    <edge id=":athlone_15" function="internal">
        <lane id=":athlone_15_0" index="0" speed="6.50" length="19.36" shape="1261.10,1987.69 1262.96,1994.71 1263.80,1997.00 1263.61,1994.59 1262.41,1987.46"/>
    </edge>
    <edge id=":athlone_16" function="internal">
        <lane id=":athlone_16_0" index="0" speed="5.87" length="13.49" shape="1267.75,1987.02 1264.64,1982.93 1262.71,1981.64 1261.97,1983.14 1262.41,1987.46"/>
    </edge>
    <edge id=":athlone_17" function="internal">
        <lane id=":athlone_17_0" index="0" speed="10.00" length="65.38" shape="1267.75,1987.02 1259.61,1975.97 1246.88,1959.47 1234.53,1943.87 1227.51,1935.52"/>
    </edge>
    <edge id=":athlone_18" function="internal">
        <lane id=":athlone_18_0" index="0" speed="10.00" length="65.78" shape="1267.75,1987.02 1259.97,1975.63 1248.06,1958.37 1236.58,1941.95 1230.12,1933.08"/>
    </edge>
    <edge id=":athlone_19" function="internal">
        <lane id=":athlone_19_0" index="0" speed="10.00" length="58.02" shape="1267.75,1987.02 1262.46,1975.70 1256.17,1958.51 1250.73,1941.96 1247.96,1932.56"/>
    </edge>
    <edge id=":athlone_20" function="internal">
        <lane id=":athlone_20_0" index="0" speed="10.00" length="39.94" shape="1270.41,1985.24 1263.81,1973.83 1260.37,1963.85 1260.09,1955.31 1262.96,1948.20"/>
    </edge>
    <edge id=":athlone_21" function="internal">
        <lane id=":athlone_21_0" index="0" speed="10.00" length="39.73" shape="1270.41,1985.24 1263.84,1973.83 1260.52,1963.90 1260.45,1955.45 1263.63,1948.49"/>
    </edge>
    <edge id=":athlone_22" function="internal">
        <lane id=":athlone_22_0" index="0" speed="10.00" length="36.33" shape="1270.41,1985.24 1265.10,1975.52 1263.32,1966.88 1266.18,1960.32 1274.78,1956.85"/>
    </edge>
    <edge id=":athlone_23" function="internal">
        <lane id=":athlone_23_0" index="0" speed="8.62" length="27.77" shape="1270.41,1985.24 1266.79,1977.52 1266.01,1970.19 1268.54,1965.27 1274.86,1964.79"/>
    </edge>
    <edge id=":athlone_24" function="internal">
        <lane id=":athlone_24_0" index="0" speed="7.92" length="24.76" shape="1273.35,1982.95 1267.13,1977.00 1263.23,1975.77 1261.66,1979.25 1262.41,1987.46"/>
    </edge>
    <edge id=":athlone_25" function="internal">
        <lane id=":athlone_25_0" index="0" speed="10.00" length="65.97" shape="1273.35,1982.95 1227.51,1935.52"/>
    </edge>
    <edge id=":athlone_26" function="internal">
        <lane id=":athlone_26_0" index="0" speed="10.00" length="66.00" shape="1273.35,1982.95 1230.12,1933.08"/>
    </edge>
    <edge id=":athlone_27" function="internal">
        <lane id=":athlone_27_0" index="0" speed="10.00" length="56.48" shape="1273.35,1982.95 1268.14,1974.19 1259.82,1958.18 1251.93,1941.97 1247.96,1932.56"/>
    </edge>
    <edge id=":athlone_28" function="internal">
        <lane id=":athlone_28_0" index="0" speed="10.00" length="38.97" shape="1273.35,1982.95 1265.43,1972.59 1261.06,1963.35 1260.24,1955.22 1262.96,1948.20"/>
    </edge>
    <edge id=":athlone_29" function="internal">
        <lane id=":athlone_29_0" index="0" speed="10.00" length="38.72" shape="1273.35,1982.95 1265.46,1972.59 1261.21,1963.40 1260.60,1955.36 1263.63,1948.49"/>
    </edge>
    <edge id=":athlone_30" function="internal">
        <lane id=":athlone_30_0" index="0" speed="10.00" length="33.64" shape="1273.35,1982.95 1267.48,1974.57 1265.05,1966.56 1267.13,1960.22 1274.78,1956.85"/>
    </edge>
    <edge id=":athlone_31" function="internal">
        <lane id=":athlone_31_0" index="0" speed="7.90" length="24.46" shape="1273.35,1982.95 1269.38,1976.52 1267.94,1969.98 1269.58,1965.38 1274.86,1964.79"/>
    </edge>
    <edge id=":athlone_32" function="internal">
        <lane id=":athlone_32_0" index="0" speed="5.69" length="12.54" shape="1275.21,1960.02 1270.89,1960.90 1269.38,1961.99 1270.71,1963.28 1274.86,1964.79"/>
    </edge>
    <edge id=":athlone_33" function="internal">
        <lane id=":athlone_33_0" index="0" speed="10.00" length="34.50" shape="1275.21,1960.02 1267.91,1962.61 1263.34,1968.05 1261.51,1976.33 1262.41,1987.46"/>
    </edge>
    <edge id=":athlone_34" function="internal">
        <lane id=":athlone_34_0" index="0" speed="10.00" length="55.22" shape="1275.21,1960.02 1264.82,1959.49 1253.40,1955.23 1240.97,1947.24 1227.51,1935.52"/>
    </edge>
    <edge id=":athlone_35" function="internal">
        <lane id=":athlone_35_0" index="0" speed="10.00" length="54.47" shape="1275.21,1960.02 1264.95,1959.34 1254.01,1954.63 1242.40,1945.87 1230.12,1933.08"/>
    </edge>
    <edge id=":athlone_36" function="internal">
        <lane id=":athlone_36_0" index="0" speed="10.00" length="42.90" shape="1275.21,1960.02 1265.84,1959.34 1258.17,1954.54 1252.22,1945.61 1247.96,1932.56"/>
    </edge>
    <edge id=":athlone_37" function="internal">
        <lane id=":athlone_37_0" index="0" speed="7.51" length="19.38" shape="1275.21,1960.02 1270.47,1959.15 1265.76,1956.14 1262.71,1952.12 1262.96,1948.20"/>
    </edge>
    <edge id=":athlone_38" function="internal">
        <lane id=":athlone_38_0" index="0" speed="7.30" length="18.66" shape="1275.21,1960.02 1270.66,1959.13 1266.15,1956.15 1263.28,1952.21 1263.63,1948.49"/>
    </edge>
    <edge id=":athlone_39" function="internal">
        <lane id=":athlone_39_0" index="0" speed="3.65" length="4.67" shape="1275.21,1960.02 1273.92,1959.39 1273.41,1958.65 1273.70,1957.80 1274.78,1956.85"/>
    </edge>
    <edge id=":athlone_40" function="internal">
        <lane id=":athlone_40_0" index="0" speed="2.63" length="1.23" shape="1263.18,1948.30 1263.34,1947.88 1263.36,1947.73 1263.23,1947.83 1262.96,1948.20"/>
    </edge>
    <edge id=":athlone_41" function="internal">
        <lane id=":athlone_41_0" index="0" speed="2.93" length="2.00" shape="1263.18,1948.30 1262.93,1948.97 1262.92,1949.22 1263.15,1949.06 1263.63,1948.49"/>
    </edge>
    <edge id=":athlone_42" function="internal">
        <lane id=":athlone_42_0" index="0" speed="7.85" length="19.24" shape="1263.18,1948.30 1262.18,1952.86 1263.78,1955.80 1267.98,1957.13 1274.78,1956.85"/>
    </edge>
    <edge id=":athlone_43" function="internal">
        <lane id=":athlone_43_0" index="0" speed="9.73" length="23.53" shape="1263.18,1948.30 1262.04,1953.70 1263.60,1958.25 1267.88,1961.95 1274.86,1964.79"/>
    </edge>
    <edge id=":athlone_44" function="internal">
        <lane id=":athlone_44_0" index="0" speed="10.00" length="39.26" shape="1263.18,1948.30 1262.10,1955.66 1261.72,1967.76 1261.88,1979.91 1262.41,1987.46"/>
    </edge>
    <edge id=":athlone_45" function="internal">
        <lane id=":athlone_45_0" index="0" speed="10.00" length="39.11" shape="1263.18,1948.30 1257.52,1949.47 1246.86,1946.27 1235.45,1940.89 1227.51,1935.52"/>
    </edge>
    <edge id=":athlone_46" function="internal">
        <lane id=":athlone_46_0" index="0" speed="10.00" length="37.81" shape="1263.18,1948.30 1257.79,1949.30 1247.89,1945.38 1237.37,1939.12 1230.12,1933.08"/>
    </edge>
    <edge id=":athlone_47" function="internal">
        <lane id=":athlone_47_0" index="0" speed="8.06" length="24.80" shape="1263.18,1948.30 1259.82,1949.67 1255.10,1945.61 1250.61,1938.97 1247.96,1932.56"/>
    </edge>
    <edge id=":athlone_48" function="internal">
        <lane id=":athlone_48_0" index="0" speed="7.53" length="22.53" shape="1260.59,1929.73 1259.83,1940.39 1259.97,1947.02 1261.01,1949.62 1262.96,1948.20"/>
    </edge>
    <edge id=":athlone_49" function="internal">
        <lane id=":athlone_49_0" index="0" speed="7.73" length="23.30" shape="1260.59,1929.73 1259.86,1940.62 1260.12,1947.37 1261.38,1950.00 1263.63,1948.49"/>
    </edge>
    <edge id=":athlone_50" function="internal">
        <lane id=":athlone_50_0" index="0" speed="10.00" length="35.88" shape="1260.59,1929.73 1260.43,1942.45 1262.74,1951.22 1267.52,1956.01 1274.78,1956.85"/>
    </edge>
    <edge id=":athlone_51" function="internal">
        <lane id=":athlone_51_0" index="0" speed="10.00" length="41.10" shape="1260.59,1929.73 1260.41,1943.21 1262.72,1953.54 1267.54,1960.74 1274.86,1964.79"/>
    </edge>
    <edge id=":athlone_52" function="internal">
        <lane id=":athlone_52_0" index="0" speed="10.00" length="57.77" shape="1260.59,1929.73 1260.55,1940.16 1260.99,1958.61 1261.68,1977.06 1262.41,1987.46"/>
    </edge>
    <edge id=":athlone_53" function="internal">
        <lane id=":athlone_53_0" index="0" speed="10.00" length="43.73" shape="1260.59,1929.73 1256.56,1940.30 1248.40,1944.47 1238.07,1942.71 1227.51,1935.52"/>
    </edge>
    <edge id=":athlone_54" function="internal">
        <lane id=":athlone_54_0" index="0" speed="10.00" length="40.37" shape="1260.59,1929.73 1256.70,1939.23 1248.89,1942.62 1239.31,1940.41 1230.12,1933.08"/>
    </edge>
    <edge id=":athlone_55" function="internal">
        <lane id=":athlone_55_0" index="0" speed="6.70" length="18.90" shape="1260.59,1929.73 1258.50,1935.17 1255.70,1937.46 1252.18,1936.59 1247.96,1932.56"/>
    </edge>
    <edge id=":athlone_56" function="internal">
        <lane id=":athlone_56_0" index="0" speed="6.37" length="17.29" shape="1244.04,1933.98 1247.14,1939.49 1248.82,1941.09 1249.10,1938.78 1247.96,1932.56"/>
    </edge>
    <edge id=":athlone_57" function="internal">
        <lane id=":athlone_57_0" index="0" speed="9.52" length="28.25" shape="1244.04,1933.98 1249.79,1943.83 1254.86,1949.49 1259.25,1950.95 1262.96,1948.20"/>
    </edge>
    <edge id=":athlone_58" function="internal">
        <lane id=":athlone_58_0" index="0" speed="9.75" length="28.87" shape="1244.04,1933.98 1249.85,1943.90 1255.06,1949.63 1259.65,1951.16 1263.63,1948.49"/>
    </edge>
    <edge id=":athlone_59" function="internal">
        <lane id=":athlone_59_0" index="0" speed="10.00" length="40.89" shape="1244.04,1933.98 1250.79,1944.89 1258.16,1952.34 1266.16,1956.32 1274.78,1956.85"/>
    </edge>
    <edge id=":athlone_60" function="internal">
        <lane id=":athlone_60_0" index="0" speed="10.00" length="44.73" shape="1244.04,1933.98 1250.87,1945.53 1258.28,1954.52 1266.28,1960.94 1274.86,1964.79"/>
    </edge>
    <edge id=":athlone_61" function="internal">
        <lane id=":athlone_61_0" index="0" speed="10.00" length="56.57" shape="1244.04,1933.98 1247.74,1943.52 1253.74,1960.54 1259.48,1977.65 1262.41,1987.46"/>
    </edge>
    <edge id=":athlone_62" function="internal">
        <lane id=":athlone_62_0" index="0" speed="6.64" length="19.06" shape="1244.04,1933.98 1244.06,1937.58 1240.28,1938.33 1234.91,1936.68 1230.12,1933.08"/>
    </edge>
    <edge id=":athlone_63" function="internal">
        <lane id=":athlone_63_0" index="0" speed="7.53" length="24.24" shape="1244.04,1933.98 1240.49,1940.56 1236.55,1943.01 1232.22,1941.33 1227.51,1935.52"/>
    </edge>
    <edge id=":athlone_64" function="internal">
        <lane id=":athlone_64_0" index="0" speed="8.65" length="30.68" shape="1232.56,1931.00 1241.19,1940.11 1246.64,1943.41 1248.90,1940.89 1247.96,1932.56"/>
    </edge>
    <edge id=":athlone_65" function="internal">
        <lane id=":athlone_65_0" index="0" speed="10.00" length="38.62" shape="1232.56,1931.00 1243.20,1942.34 1251.81,1948.99 1258.40,1950.94 1262.96,1948.20"/>
    </edge>
    <edge id=":athlone_66" function="internal">
        <lane id=":athlone_66_0" index="0" speed="10.00" length="39.25" shape="1232.56,1931.00 1243.27,1942.39 1252.02,1949.10 1258.81,1951.14 1263.63,1948.49"/>
    </edge>
    <edge id=":athlone_67" function="internal">
        <lane id=":athlone_67_0" index="0" speed="10.00" length="51.30" shape="1232.56,1931.00 1244.23,1943.23 1255.16,1951.61 1265.35,1956.15 1274.78,1956.85"/>
    </edge>
    <edge id=":athlone_68" function="internal">
        <lane id=":athlone_68_0" index="0" speed="10.00" length="54.21" shape="1232.56,1931.00 1239.86,1937.69 1253.12,1948.80 1266.68,1959.46 1274.86,1964.79"/>
    </edge>
    <edge id=":athlone_69" function="internal">
        <lane id=":athlone_69_0" index="0" speed="10.00" length="63.91" shape="1232.56,1931.00 1238.46,1940.74 1248.36,1958.81 1257.82,1977.10 1262.41,1987.46"/>
    </edge>
    <edge id=":athlone_70" function="internal">
        <lane id=":athlone_70_0" index="0" speed="4.82" length="9.54" shape="1232.56,1931.00 1233.18,1933.28 1231.96,1935.32 1229.78,1936.32 1227.51,1935.52"/>
    </edge>
    <edge id=":athlone_71" function="internal">
        <lane id=":athlone_71_0" index="0" speed="3.65" length="4.67" shape="1232.56,1931.00 1232.73,1932.43 1232.38,1933.26 1231.51,1933.47 1230.12,1933.08"/>
    </edge>
    <edge id=":athlone_72" function="internal">
        <lane id=":athlone_72_0" index="0" speed="10.00" length="45.70" shape="1251.88,1972.83 1251.25,1966.26 1246.98,1957.85 1239.06,1947.60 1227.51,1935.52"/>
    </edge>
    <edge id=":athlone_73" function="internal">
        <lane id=":athlone_73_0" index="0" speed="10.00" length="46.27" shape="1251.88,1972.83 1251.42,1966.08 1247.64,1957.20 1240.54,1946.20 1230.12,1933.08"/>
    </edge>
    <edge id=":athlone_74" function="internal">
        <lane id=":athlone_74_0" index="0" speed="10.00" length="40.51" shape="1251.88,1972.83 1251.86,1965.16 1250.72,1952.69 1249.18,1940.22 1247.96,1932.56"/>
    </edge>
    <edge id=":athlone_75" function="internal">
        <lane id=":athlone_75_0" index="0" speed="10.00" length="27.07" shape="1251.88,1972.83 1253.65,1967.50 1256.73,1960.22 1260.17,1953.09 1262.96,1948.20"/>
    </edge>
    <edge id=":athlone_76" function="internal">
        <lane id=":athlone_76_0" index="0" speed="10.00" length="27.11" shape="1251.88,1972.83 1253.72,1967.52 1257.00,1960.31 1260.65,1953.28 1263.63,1948.49"/>
    </edge>
    <edge id=":athlone_77" function="internal">