<?xml version="1.0" encoding="UTF-8"?>

<!-- generated on 2025-02-19 12:43:47 by Eclipse SUMO netconvert Version 1.18.0
<configuration xmlns:xsi="http://www.w3.org/2001/XMLSchema-instance" xsi:noNamespaceSchemaLocation="http://sumo.dlr.de/xsd/netconvertConfiguration.xsd">

    <input>
        <node-files value="nod.xml"/>
        <edge-files value="edge_xmls/07337.xml"/>
    </input>

    <output>
        <output-file value="networks/07337.net.xml"/>
    </output>

</configuration>
-->

<net version="1.16" junctionCornerDetail="5" limitTurnSpeed="5.50" xmlns:xsi="http://www.w3.org/2001/XMLSchema-instance" xsi:noNamespaceSchemaLocation="http://sumo.dlr.de/xsd/net_file.xsd">

    <location netOffset="-682.00,4368.00" convBoundary="0.00,0.00,2498.00,3881.00" origBoundary="682.00,-4368.00,3180.00,-487.00" projParameter="!"/>

    <edge id=":antrim_0" function="internal">
        <lane id=":antrim_0_0" index="0" speed="10.00" length="20.92" shape="2297.08,3484.13 2279.12,3494.85"/>
    </edge>
    <edge id=":antrim_1" function="internal">
        <lane id=":antrim_1_0" index="0" speed="10.00" length="51.16" shape="2297.08,3484.13 2288.00,3485.19 2271.81,3484.92 2255.50,3483.99 2246.06,3483.07"/>
    </edge>
    <edge id=":antrim_2" function="internal">
        <lane id=":antrim_2_0" index="0" speed="10.00" length="67.52" shape="2297.08,3484.13 2289.00,3485.39 2275.78,3482.45 2257.41,3475.33 2233.89,3464.02"/>
    </edge>
    <edge id=":antrim_3" function="internal">
        <lane id=":antrim_3_0" index="0" speed="10.00" length="69.71" shape="2297.08,3484.13 2289.34,3484.32 2277.47,3477.98 2261.45,3465.12 2241.29,3445.74"/>
    </edge>
    <edge id=":antrim_4" function="internal">
        <lane id=":antrim_4_0" index="0" speed="10.00" length="58.46" shape="2297.08,3484.13 2290.02,3484.59 2280.31,3479.02 2267.93,3467.39 2252.89,3449.73"/>
    </edge>
    <edge id=":antrim_5" function="internal">
        <lane id=":antrim_5_0" index="0" speed="10.00" length="57.87" shape="2297.08,3484.13 2290.18,3484.47 2281.03,3478.45 2269.63,3466.07 2255.98,3447.33"/>
    </edge>
    <edge id=":antrim_6" function="internal">
        <lane id=":antrim_6_0" index="0" speed="10.00" length="39.32" shape="2297.08,3484.13 2291.99,3481.66 2284.64,3473.12 2277.57,3462.52 2273.32,3453.85"/>
    </edge>
    <edge id=":antrim_7" function="internal">
        <lane id=":antrim_7_0" index="0" speed="10.00" length="39.15" shape="2297.08,3484.13 2292.09,3481.60 2285.02,3472.91 2278.28,3462.14 2274.29,3453.36"/>
    </edge>
    <edge id=":antrim_8" function="internal">
        <lane id=":antrim_8_0" index="0" speed="10.00" length="38.94" shape="2297.08,3484.13 2292.24,3481.52 2285.58,3472.59 2279.34,3461.57 2275.74,3452.63"/>
    </edge>
    <edge id=":antrim_9" function="internal">
        <lane id=":antrim_9_0" index="0" speed="10.00" length="38.74" shape="2297.08,3484.13 2292.48,3481.37 2286.46,3472.09 2280.97,3460.67 2277.96,3451.51"/>
    </edge>
    <edge id=":antrim_10" function="internal">
        <lane id=":antrim_10_0" index="0" speed="10.00" length="38.69" shape="2297.08,3484.13 2292.74,3481.22 2287.38,3471.55 2282.67,3459.73 2280.26,3450.35"/>
    </edge>
    <edge id=":antrim_11" function="internal">
        <lane id=":antrim_11_0" index="0" speed="10.00" length="39.71" shape="2297.08,3484.13 2293.70,3480.62 2290.64,3469.59 2288.57,3456.39 2288.12,3446.38"/>
    </edge>
    <edge id=":antrim_12" function="internal">
        <lane id=":antrim_12_0" index="0" speed="6.44" length="18.50" shape="2285.63,3447.64 2286.10,3454.18 2286.67,3456.15 2287.35,3453.55 2288.12,3446.38"/>
    </edge>
    <edge id=":antrim_13" function="internal">
        <lane id=":antrim_13_0" index="0" speed="10.00" length="48.72" shape="2285.63,3447.64 2285.98,3466.44 2285.01,3480.57 2282.72,3490.04 2279.12,3494.85"/>
    </edge>
    <edge id=":antrim_14" function="internal">
        <lane id=":antrim_14_0" index="0" speed="10.00" length="65.07" shape="2285.63,3447.64 2284.12,3466.38 2277.24,3478.46 2264.67,3483.99 2246.06,3483.07"/>
    </edge>
    <edge id=":antrim_15" function="internal">
        <lane id=":antrim_15_0" index="0" speed="10.00" length="69.22" shape="2285.63,3447.64 2281.92,3464.84 2270.35,3472.29 2253.49,3471.51 2233.89,3464.02"/>
    </edge>
    <edge id=":antrim_16" function="internal">
        <lane id=":antrim_16_0" index="0" speed="10.00" length="46.86" shape="2285.63,3447.64 2279.75,3451.98 2265.95,3452.40 2250.90,3449.96 2241.29,3445.74"/>
    </edge>
    <edge id=":antrim_17" function="internal">
        <lane id=":antrim_17_0" index="0" speed="9.63" length="36.29" shape="2285.63,3447.64 2281.47,3452.69 2271.49,3454.63 2260.39,3453.59 2252.89,3449.73"/>
    </edge>
    <edge id=":antrim_18" function="internal">
        <lane id=":antrim_18_0" index="0" speed="9.13" length="33.48" shape="2285.63,3447.64 2281.87,3452.37 2272.83,3453.58 2262.77,3451.74 2255.98,3447.33"/>
    </edge>
    <edge id=":antrim_19" function="internal">
        <lane id=":antrim_19_0" index="0" speed="6.18" length="16.15" shape="2285.63,3447.64 2283.99,3451.16 2280.07,3454.11 2275.86,3455.38 2273.32,3453.85"/>
    </edge>
    <edge id=":antrim_20" function="internal">
        <lane id=":antrim_20_0" index="0" speed="5.94" length="14.89" shape="2285.63,3447.64 2284.10,3450.89 2280.47,3453.61 2276.57,3454.78 2274.29,3453.36"/>
    </edge>
    <edge id=":antrim_21" function="internal">
        <lane id=":antrim_21_0" index="0" speed="5.56" length="13.00" shape="2285.63,3447.64 2284.28,3450.48 2281.07,3452.87 2277.67,3453.89 2275.74,3452.63"/>
    </edge>
    <edge id=":antrim_22" function="internal">
        <lane id=":antrim_22_0" index="0" speed="4.56" length="8.43" shape="2285.63,3447.64 2284.91,3449.94 2283.13,3451.49 2281.27,3451.80 2280.26,3450.35"/>
    </edge>
    <edge id=":antrim_23" function="internal">
        <lane id=":antrim_23_0" index="0" speed="5.42" length="12.54" shape="2285.63,3447.64 2285.16,3451.48 2283.73,3453.41 2281.33,3453.42 2277.96,3451.51"/>
    </edge>
    <edge id=":antrim_24" function="internal">
        <lane id=":antrim_24_0" index="0" speed="7.52" length="25.50" shape="2283.31,3448.81 2284.56,3457.53 2285.78,3460.03 2286.97,3456.31 2288.12,3446.38"/>
    </edge>
    <edge id=":antrim_25" function="internal">
        <lane id=":antrim_25_0" index="0" speed="10.00" length="47.42" shape="2283.31,3448.81 2284.69,3467.08 2284.46,3480.85 2282.60,3490.10 2279.12,3494.85"/>
    </edge>
    <edge id=":antrim_26" function="internal">
        <lane id=":antrim_26_0" index="0" speed="10.00" length="62.55" shape="2283.31,3448.81 2282.63,3466.69 2276.16,3478.38 2263.95,3483.85 2246.06,3483.07"/>
    </edge>
    <edge id=":antrim_27" function="internal">
        <lane id=":antrim_27_0" index="0" speed="10.00" length="66.44" shape="2283.31,3448.81 2280.47,3465.08 2269.33,3472.05 2252.82,3471.20 2233.89,3464.02"/>
    </edge>
    <edge id=":antrim_28" function="internal">
        <lane id=":antrim_28_0" index="0" speed="10.00" length="55.90" shape="2283.31,3448.81 2280.10,3460.50 2269.38,3462.27 2255.12,3456.54 2241.29,3445.74"/>
    </edge>
    <edge id=":antrim_29" function="internal">
        <lane id=":antrim_29_0" index="0" speed="9.24" length="34.15" shape="2283.31,3448.81 2279.73,3453.66 2270.52,3455.20 2260.10,3453.77 2252.89,3449.73"/>
    </edge>
    <edge id=":antrim_30" function="internal">
        <lane id=":antrim_30_0" index="0" speed="8.76" length="31.44" shape="2283.31,3448.81 2280.14,3453.34 2271.86,3454.15 2262.48,3451.92 2255.98,3447.33"/>
    </edge>
    <edge id=":antrim_31" function="internal">
        <lane id=":antrim_31_0" index="0" speed="5.60" length="13.14" shape="2283.31,3448.81 2282.07,3451.66 2278.88,3454.05 2275.41,3455.09 2273.32,3453.85"/>
    </edge>
    <edge id=":antrim_32" function="internal">
        <lane id=":antrim_32_0" index="0" speed="5.34" length="11.88" shape="2283.31,3448.81 2282.18,3451.39 2279.28,3453.56 2276.13,3454.49 2274.29,3453.36"/>
    </edge>
    <edge id=":antrim_33" function="internal">
        <lane id=":antrim_33_0" index="0" speed="4.93" length="9.98" shape="2283.31,3448.81 2282.34,3450.98 2279.88,3452.81 2277.24,3453.59 2275.74,3452.63"/>
    </edge>
    <edge id=":antrim_34" function="internal">
        <lane id=":antrim_34_0" index="0" speed="4.56" length="8.41" shape="2283.31,3448.81 2282.70,3451.09 2280.98,3452.63 2279.08,3452.94 2277.96,3451.51"/>
    </edge>
    <edge id=":antrim_35" function="internal">
        <lane id=":antrim_35_0" index="0" speed="3.73" length="5.00" shape="2283.31,3448.81 2283.12,3450.34 2282.55,3451.11 2281.60,3451.11 2280.26,3450.35"/>
    </edge>
    <edge id=":antrim_36" function="internal">
        <lane id=":antrim_36_0" index="0" speed="5.61" length="13.55" shape="2278.67,3451.15 2279.91,3455.91 2280.59,3457.36 2280.70,3455.51 2280.26,3450.35"/>
    </edge>
    <edge id=":antrim_37" function="internal">
        <lane id=":antrim_37_0" index="0" speed="8.59" length="32.30" shape="2278.67,3451.15 2281.74,3461.29 2284.34,3463.87 2286.46,3458.90 2288.12,3446.38"/>
    </edge>
    <edge id=":antrim_38" function="internal">
        <lane id=":antrim_38_0" index="0" speed="10.00" length="45.18" shape="2278.67,3451.15 2282.14,3468.37 2283.36,3481.39 2282.36,3490.22 2279.12,3494.85"/>
    </edge>
    <edge id=":antrim_39" function="internal">
        <lane id=":antrim_39_0" index="0" speed="10.00" length="57.44" shape="2278.67,3451.15 2279.55,3467.21 2273.90,3478.13 2262.48,3483.54 2246.06,3483.07"/>
    </edge>
    <edge id=":antrim_40" function="internal">
        <lane id=":antrim_40_0" index="0" speed="10.00" length="60.73" shape="2278.67,3451.15 2277.43,3465.45 2267.16,3471.47 2251.44,3470.55 2233.89,3464.02"/>
    </edge>
    <edge id=":antrim_41" function="internal">
        <lane id=":antrim_41_0" index="0" speed="10.00" length="50.45" shape="2278.67,3451.15 2276.94,3461.03 2267.31,3461.72 2254.01,3455.78 2241.29,3445.74"/>
    </edge>
    <edge id=":antrim_42" function="internal">
        <lane id=":antrim_42_0" index="0" speed="8.45" length="29.79" shape="2278.67,3451.15 2276.23,3455.41 2268.53,3456.11 2259.45,3453.97 2252.89,3449.73"/>
    </edge>
    <edge id=":antrim_43" function="internal">
        <lane id=":antrim_43_0" index="0" speed="7.89" length="26.52" shape="2278.67,3451.15 2276.48,3454.60 2269.60,3454.43 2261.59,3451.66 2255.98,3447.33"/>
    </edge>
    <edge id=":antrim_44" function="internal">
        <lane id=":antrim_44_0" index="0" speed="4.27" length="7.08" shape="2278.67,3451.15 2278.12,3452.66 2276.40,3453.94 2274.48,3454.51 2273.32,3453.85"/>
    </edge>
    <edge id=":antrim_45" function="internal">
        <lane id=":antrim_45_0" index="0" speed="3.73" length="4.91" shape="2278.67,3451.15 2274.29,3453.36"/>
    </edge>
    <edge id=":antrim_46" function="internal">
        <lane id=":antrim_46_0" index="0" speed="5.32" length="12.25" shape="2278.67,3451.15 2277.58,3446.75 2277.10,3445.34 2277.22,3446.93 2277.96,3451.51"/>
    </edge>
    <edge id=":antrim_47" function="internal">
        <lane id=":antrim_47_0" index="0" speed="3.68" length="4.81" shape="2278.67,3451.15 2278.50,3452.62 2277.95,3453.36 2277.03,3453.36 2275.74,3452.63"/>
    </edge>
    <edge id=":antrim_48" function="internal">
        <lane id=":antrim_48_0" index="0" speed="10.00" length="63.02" shape="2278.72,3451.13 2269.29,3429.75 2265.25,3423.08 2266.60,3431.11 2273.32,3453.85"/>
    </edge>
    <edge id=":antrim_49" function="internal">
        <lane id=":antrim_49_0" index="0" speed="10.00" length="66.20" shape="2278.72,3451.13 2268.77,3428.86 2264.23,3422.05 2265.10,3430.71 2271.38,3454.83"/>
    </edge>
    <edge id=":antrim_50" function="internal">
        <lane id=":antrim_50_0" index="0" speed="6.72" length="20.14" shape="2278.72,3451.13 2275.67,3444.45 2274.16,3442.48 2274.19,3445.20 2275.74,3452.63"/>
    </edge>
    <edge id=":antrim_51" function="internal">
        <lane id=":antrim_51_0" index="0" speed="3.48" length="3.73" shape="2278.72,3451.13 2278.15,3449.93 2277.84,3449.59 2277.77,3450.12 2277.96,3451.51"/>
    </edge>
    <edge id=":antrim_52" function="internal">
        <lane id=":antrim_52_0" index="0" speed="4.15" length="6.04" shape="2278.72,3451.13 2279.63,3453.02 2280.19,3453.51 2280.40,3452.63 2280.26,3450.35"/>
    </edge>
    <edge id=":antrim_53" function="internal">
        <lane id=":antrim_53_0" index="0" speed="8.60" length="30.23" shape="2275.85,3452.57 2280.26,3460.83 2283.78,3462.54 2286.40,3457.73 2288.12,3446.38"/>
    </edge>
    <edge id=":antrim_54" function="internal">
        <lane id=":antrim_54_0" index="0" speed="10.00" length="45.06" shape="2275.85,3452.57 2281.67,3468.52 2284.15,3480.88 2283.30,3489.66 2279.12,3494.85"/>
    </edge>
    <edge id=":antrim_55" function="internal">
        <lane id=":antrim_55_0" index="0" speed="10.00" length="45.09" shape="2275.85,3452.57 2273.88,3461.03 2265.52,3471.51 2254.88,3480.15 2246.06,3483.07"/>
    </edge>
    <edge id=":antrim_56" function="internal">
        <lane id=":antrim_56_0" index="0" speed="10.00" length="43.03" shape="2272.99,3454.02 2269.45,3459.61 2257.70,3463.62 2243.82,3465.33 2233.89,3464.02"/>
    </edge>
    <edge id=":antrim_57" function="internal">
        <lane id=":antrim_57_0" index="0" speed="9.09" length="35.59" shape="2272.99,3454.02 2270.37,3457.07 2260.77,3455.33 2249.35,3450.86 2241.29,3445.74"/>
    </edge>
    <edge id=":antrim_58" function="internal">
        <lane id=":antrim_58_0" index="0" speed="7.34" length="23.51" shape="2272.99,3454.02 2271.57,3456.77 2265.53,3456.26 2258.20,3453.55 2252.89,3449.73"/>
    </edge>
    <edge id=":antrim_59" function="internal">
        <lane id=":antrim_59_0" index="0" speed="6.84" length="20.73" shape="2272.99,3454.02 2271.81,3456.05 2266.65,3454.68 2260.41,3451.30 2255.98,3447.33"/>
    </edge>
    <edge id=":antrim_60" function="internal">
        <lane id=":antrim_60_0" index="0" speed="7.68" length="25.67" shape="2260.98,3443.30 2268.08,3453.35 2272.50,3458.45 2274.25,3458.62 2273.32,3453.85"/>
    </edge>
    <edge id=":antrim_61" function="internal">
        <lane id=":antrim_61_0" index="0" speed="6.69" length="18.80" shape="2260.98,3443.30 2266.24,3450.85 2269.72,3455.29 2271.44,3456.62 2271.38,3454.83"/>
    </edge>
    <edge id=":antrim_62" function="internal">
        <lane id=":antrim_62_0" index="0" speed="8.42" length="30.44" shape="2260.98,3443.30 2269.16,3454.65 2274.34,3459.98 2276.54,3459.31 2275.74,3452.63"/>
    </edge>
    <edge id=":antrim_63" function="internal">
        <lane id=":antrim_63_0" index="0" speed="8.97" length="33.98" shape="2260.98,3443.30 2269.87,3455.43 2275.66,3460.83 2278.36,3459.53 2277.96,3451.51"/>
    </edge>
    <edge id=":antrim_64" function="internal">
        <lane id=":antrim_64_0" index="0" speed="9.47" length="37.11" shape="2260.98,3443.30 2270.44,3455.99 2276.81,3461.39 2280.08,3459.51 2280.26,3450.35"/>
    </edge>
    <edge id=":antrim_65" function="internal">
        <lane id=":antrim_65_0" index="0" speed="10.00" length="45.97" shape="2260.98,3443.30 2271.78,3456.99 2279.90,3462.07 2285.35,3458.53 2288.12,3446.38"/>
    </edge>
    <edge id=":antrim_66" function="internal">
        <lane id=":antrim_66_0" index="0" speed="10.00" length="55.72" shape="2258.52,3445.37 2270.97,3465.02 2278.55,3479.82 2281.27,3489.76 2279.12,3494.85"/>
    </edge>
    <edge id=":antrim_67" function="internal">
        <lane id=":antrim_67_0" index="0" speed="10.00" length="52.29" shape="2258.52,3445.37 2264.82,3459.55 2265.04,3472.62 2258.88,3481.48 2246.06,3483.07"/>
    </edge>
    <edge id=":antrim_68" function="internal">
        <lane id=":antrim_68_0" index="0" speed="10.00" length="42.02" shape="2258.52,3445.37 2260.87,3455.39 2255.53,3462.98 2245.53,3466.42 2233.89,3464.02"/>
    </edge>
    <edge id=":antrim_69" function="internal">
        <lane id=":antrim_69_0" index="0" speed="7.25" length="23.62" shape="2258.52,3445.37 2259.03,3449.74 2254.43,3451.10 2247.56,3449.68 2241.29,3445.74"/>
    </edge>
    <edge id=":antrim_70" function="internal">
        <lane id=":antrim_70_0" index="0" speed="4.91" length="10.04" shape="2258.52,3445.37 2258.92,3447.87 2257.46,3449.94 2255.12,3450.82 2252.89,3449.73"/>
    </edge>
    <edge id=":antrim_71" function="internal">
        <lane id=":antrim_71_0" index="0" speed="3.65" length="4.68" shape="2258.52,3445.37 2258.62,3446.81 2258.23,3447.62 2257.35,3447.80 2255.98,3447.33"/>
    </edge>
    <edge id=":antrim_72" function="internal">
        <lane id=":antrim_72_0" index="0" speed="4.95" length="10.22" shape="2255.36,3447.82 2257.77,3450.78 2258.68,3451.68 2258.08,3450.54 2255.98,3447.33"/>
    </edge>
    <edge id=":antrim_73" function="internal">
        <lane id=":antrim_73_0" index="0" speed="9.47" length="38.92" shape="2255.36,3447.82 2266.43,3460.74 2273.12,3466.05 2275.42,3463.75 2273.32,3453.85"/>
    </edge>
    <edge id=":antrim_74" function="internal">
        <lane id=":antrim_74_0" index="0" speed="8.61" length="31.46" shape="2255.36,3447.82 2264.53,3458.55 2270.25,3463.29 2272.54,3462.06 2271.38,3454.83"/>
    </edge>
    <edge id=":antrim_75" function="internal">
        <lane id=":antrim_75_0" index="0" speed="9.90" length="41.54" shape="2255.36,3447.82 2266.92,3461.08 2274.17,3466.30 2277.11,3463.49 2275.74,3452.63"/>
    </edge>
    <edge id=":antrim_76" function="internal">
        <lane id=":antrim_76_0" index="0" speed="10.00" length="43.71" shape="2255.36,3447.82 2267.27,3461.28 2275.01,3466.39 2278.58,3463.13 2277.96,3451.51"/>
    </edge>
    <edge id=":antrim_77" function="internal">
        <lane id=":antrim_77_0" index="0" speed="10.00" length="45.85" shape="2255.36,3447.82 2267.59,3461.43 2275.81,3466.38 2280.04,3462.69 2280.26,3450.35"/>
    </edge>
    <edge id=":antrim_78" function="internal">
        <lane id=":antrim_78_0" index="0" speed="10.00" length="52.95" shape="2255.36,3447.82 2268.43,3461.62 2278.25,3465.98 2284.81,3460.90 2288.12,3446.38"/>
    </edge>
    <edge id=":antrim_79" function="internal">
        <lane id=":antrim_79_0" index="0" speed="10.00" length="52.89" shape="2255.36,3447.82 2261.73,3457.91 2270.19,3473.43 2277.17,3487.90 2279.12,3494.85"/>
    </edge>
    <edge id=":antrim_80" function="internal">
        <lane id=":antrim_80_0" index="0" speed="10.00" length="39.56" shape="2255.36,3447.82 2257.46,3456.50 2256.05,3468.67 2251.97,3479.23 2246.06,3483.07"/>
    </edge>
    <edge id=":antrim_81" function="internal">
        <lane id=":antrim_81_0" index="0" speed="8.63" length="31.26" shape="2255.36,3447.82 2255.45,3453.86 2249.66,3460.06 2241.36,3464.18 2233.89,3464.02"/>
    </edge>
    <edge id=":antrim_82" function="internal">
        <lane id=":antrim_82_0" index="0" speed="6.04" length="16.15" shape="2255.36,3447.82 2254.87,3449.54 2250.67,3449.44 2245.30,3448.02 2241.29,3445.74"/>
    </edge>
    <edge id=":antrim_83" function="internal">
        <lane id=":antrim_83_0" index="0" speed="3.62" length="4.55" shape="2255.36,3447.82 2255.46,3449.22 2255.08,3450.01 2254.22,3450.17 2252.89,3449.73"/>
    </edge>
    <edge id=":antrim_84" function="internal">
        <lane id=":antrim_84_0" index="0" speed="8.50" length="33.90" shape="2241.88,3444.28 2253.13,3454.80 2258.72,3459.21 2258.64,3457.52 2252.89,3449.73"/>
    </edge>
    <edge id=":antrim_85" function="internal">
        <lane id=":antrim_85_0" index="0" speed="9.66" length="43.18" shape="2241.88,3444.28 2255.64,3456.88 2262.58,3461.59 2262.70,3458.41 2255.98,3447.33"/>
    </edge>
    <edge id=":antrim_86" function="internal">
        <lane id=":antrim_86_0" index="0" speed="10.00" length="51.66" shape="2241.88,3444.28 2259.12,3459.59 2270.10,3466.29 2274.84,3464.38 2273.32,3453.85"/>
    </edge>
    <edge id=":antrim_87" function="internal">
        <lane id=":antrim_87_0" index="0" speed="10.00" length="46.05" shape="2241.88,3444.28 2257.38,3458.10 2267.46,3464.46 2272.13,3463.37 2271.38,3454.83"/>
    </edge>
    <edge id=":antrim_88" function="internal">
        <lane id=":antrim_88_0" index="0" speed="10.00" length="53.86" shape="2241.88,3444.28 2259.48,3459.73 2271.00,3466.26 2276.42,3463.90 2275.74,3452.63"/>
    </edge>
    <edge id=":antrim_89" function="internal">
        <lane id=":antrim_89_0" index="0" speed="10.00" length="55.84" shape="2241.88,3444.28 2259.78,3459.81 2271.76,3466.18 2277.82,3463.42 2277.96,3451.51"/>
    </edge>
    <edge id=":antrim_90" function="internal">
        <lane id=":antrim_90_0" index="0" speed="10.00" length="57.87" shape="2241.88,3444.28 2260.05,3459.86 2272.50,3466.06 2279.24,3462.89 2280.26,3450.35"/>
    </edge>
    <edge id=":antrim_91" function="internal">
        <lane id=":antrim_91_0" index="0" speed="10.00" length="64.91" shape="2241.88,3444.28 2260.83,3459.88 2274.85,3465.43 2283.95,3460.93 2288.12,3446.38"/>
    </edge>
    <edge id=":antrim_92" function="internal">
        <lane id=":antrim_92_0" index="0" speed="10.00" length="65.18" shape="2241.88,3444.28 2259.41,3461.75 2272.89,3476.91 2280.18,3488.41 2279.12,3494.85"/>
    </edge>
    <edge id=":antrim_93" function="internal">
        <lane id=":antrim_93_0" index="0" speed="10.00" length="52.07" shape="2241.88,3444.28 2252.11,3457.25 2257.80,3470.82 2256.58,3480.82 2246.06,3483.07"/>
    </edge>
    <edge id=":antrim_94" function="internal">
        <lane id=":antrim_94_0" index="0" speed="8.19" length="29.49" shape="2241.88,3444.28 2245.70,3451.59 2245.02,3459.26 2240.77,3464.37 2233.89,3464.02"/>
    </edge>
    <edge id=":antrim_95" function="internal">
        <lane id=":antrim_95_0" index="0" speed="2.97" length="2.30" shape="2241.88,3444.28 2242.28,3444.87 2242.31,3445.31 2241.98,3445.60 2241.29,3445.74"/>
    </edge>
    <edge id=":antrim_96" function="internal">
        <lane id=":antrim_96_0" index="0" speed="5.50" length="12.91" shape="2240.62,3447.38 2244.35,3450.17 2245.71,3450.83 2244.69,3449.35 2241.29,3445.74"/>
    </edge>
    <edge id=":antrim_97" function="internal">
        <lane id=":antrim_97_0" index="0" speed="8.27" length="30.77" shape="2240.62,3447.38 2251.65,3455.56 2257.37,3458.68 2257.78,3456.73 2252.89,3449.73"/>
    </edge>
    <edge id=":antrim_98" function="internal">
        <lane id=":antrim_98_0" index="0" speed="9.30" length="38.28" shape="2240.62,3447.38 2253.81,3456.95 2260.76,3460.13 2261.49,3456.92 2255.98,3447.33"/>
    </edge>
    <edge id=":antrim_99" function="internal">
        <lane id=":antrim_99_0" index="0" speed="10.00" length="48.22" shape="2240.62,3447.38 2257.90,3459.72 2269.11,3464.90 2274.25,3462.95 2273.32,3453.85"/>
    </edge>
    <edge id=":antrim_100" function="internal">
        <lane id=":antrim_100_0" index="0" speed="10.00" length="43.55" shape="2240.62,3447.38 2256.33,3458.64 2266.70,3463.64 2271.71,3462.37 2271.38,3454.83"/>
    </edge>
    <edge id=":antrim_101" function="internal">
        <lane id=":antrim_101_0" index="0" speed="10.00" length="50.76" shape="2240.62,3447.38 2258.41,3459.92 2270.19,3464.97 2275.97,3462.54 2275.74,3452.63"/>
    </edge>
    <edge id=":antrim_102" function="internal">
        <lane id=":antrim_102_0" index="0" speed="10.00" length="56.88" shape="2239.37,3450.47 2258.42,3463.55 2271.20,3468.09 2277.71,3464.07 2277.96,3451.51"/>
    </edge>
    <edge id=":antrim_103" function="internal">
        <lane id=":antrim_103_0" index="0" speed="10.00" length="58.90" shape="2239.37,3450.47 2258.67,3463.56 2271.91,3467.91 2279.11,3463.50 2280.26,3450.35"/>
    </edge>
    <edge id=":antrim_104" function="internal">
        <lane id=":antrim_104_0" index="0" speed="10.00" length="65.99" shape="2239.37,3450.47 2259.40,3463.51 2274.21,3467.17 2283.78,3461.46 2288.12,3446.38"/>
    </edge>
    <edge id=":antrim_105" function="internal">
        <lane id=":antrim_105_0" index="0" speed="10.00" length="62.19" shape="2239.37,3450.47 2257.72,3465.35 2272.06,3478.54 2279.99,3488.80 2279.12,3494.85"/>
    </edge>
    <edge id=":antrim_106" function="internal">
        <lane id=":antrim_106_0" index="0" speed="10.00" length="44.73" shape="2239.37,3450.47 2249.11,3460.85 2254.98,3472.33 2254.72,3481.03 2246.06,3483.07"/>
    </edge>
    <edge id=":antrim_107" function="internal">
        <lane id=":antrim_107_0" index="0" speed="6.93" length="21.35" shape="2239.37,3450.47 2243.08,3455.92 2243.41,3459.99 2240.34,3462.69 2233.89,3464.02"/>
    </edge>
    <edge id=":antrim_108" function="internal">
        <lane id=":antrim_108_0" index="0" speed="7.96" length="29.68" shape="2232.64,3467.12 2243.04,3470.83 2246.71,3471.55 2243.66,3469.28 2233.89,3464.02"/>
    </edge>
    <edge id=":antrim_109" function="internal">
        <lane id=":antrim_109_0" index="0" speed="10.00" length="57.37" shape="2232.64,3467.12 2250.85,3472.46 2258.36,3470.68 2255.18,3461.77 2241.29,3445.74"/>
    </edge>
    <edge id=":antrim_110" function="internal">
        <lane id=":antrim_110_0" index="0" speed="10.00" length="55.18" shape="2232.64,3467.12 2252.10,3472.91 2261.96,3471.94 2262.23,3464.21 2252.89,3449.73"/>
    </edge>
    <edge id=":antrim_111" function="internal">
        <lane id=":antrim_111_0" index="0" speed="10.00" length="57.61" shape="2232.64,3467.12 2252.56,3472.86 2263.09,3471.48 2264.23,3462.97 2255.98,3447.33"/>
    </edge>
    <edge id=":antrim_112" function="internal">
        <lane id=":antrim_112_0" index="0" speed="10.00" length="58.72" shape="2232.64,3467.12 2254.25,3473.50 2268.24,3473.41 2274.59,3466.86 2273.32,3453.85"/>
    </edge>
    <edge id=":antrim_113" function="internal">
        <lane id=":antrim_113_0" index="0" speed="10.00" length="59.52" shape="2232.64,3467.12 2254.35,3473.48 2268.53,3473.31 2275.18,3466.61 2274.29,3453.36"/>
    </edge>
    <edge id=":antrim_114" function="internal">
        <lane id=":antrim_114_0" index="0" speed="10.00" length="60.74" shape="2232.64,3467.12 2254.50,3473.46 2268.97,3473.16 2276.05,3466.21 2275.74,3452.63"/>
    </edge>
    <edge id=":antrim_115" function="internal">
        <lane id=":antrim_115_0" index="0" speed="10.00" length="62.64" shape="2232.64,3467.12 2254.71,3473.42 2269.63,3472.91 2277.37,3465.61 2277.96,3451.51"/>
    </edge>
    <edge id=":antrim_116" function="internal">
        <lane id=":antrim_116_0" index="0" speed="10.00" length="64.65" shape="2232.64,3467.12 2254.92,3473.37 2270.29,3472.66 2278.73,3464.99 2280.26,3450.35"/>
    </edge>
    <edge id=":antrim_117" function="internal">
        <lane id=":antrim_117_0" index="0" speed="10.00" length="71.87" shape="2232.64,3467.12 2255.59,3473.19 2272.49,3471.75 2283.33,3462.82 2288.12,3446.38"/>
    </edge>
    <edge id=":antrim_118" function="internal">
        <lane id=":antrim_118_0" index="0" speed="10.00" length="57.34" shape="2232.64,3467.12 2253.01,3475.21 2269.74,3483.05 2279.53,3489.85 2279.12,3494.85"/>
    </edge>
    <edge id=":antrim_119" function="internal">
        <lane id=":antrim_119_0" index="0" speed="7.83" length="27.99" shape="2232.64,3467.12 2240.90,3471.64 2247.67,3477.43 2250.28,3482.06 2246.06,3483.07"/>
    </edge>
    <edge id=":antrim_120" function="internal">
        <lane id=":antrim_120_0" index="0" speed="8.27" length="30.18" shape="2247.25,3476.78 2253.22,3477.27 2252.98,3475.31 2246.54,3470.89 2233.89,3464.02"/>
    </edge>
    <edge id=":antrim_121" function="internal">
        <lane id=":antrim_121_0" index="0" speed="10.00" length="49.48" shape="2247.25,3476.78 2258.16,3476.97 2260.81,3471.87 2255.18,3461.46 2241.29,3445.74"/>
    </edge>
    <edge id=":antrim_122" function="internal">
        <lane id=":antrim_122_0" index="0" speed="10.00" length="45.37" shape="2247.25,3476.78 2259.53,3477.34 2264.56,3473.03 2262.35,3463.82 2252.89,3449.73"/>
    </edge>
    <edge id=":antrim_123" function="internal">
        <lane id=":antrim_123_0" index="0" speed="10.00" length="47.76" shape="2247.25,3476.78 2260.08,3477.26 2265.81,3472.52 2264.45,3462.54 2255.98,3447.33"/>
    </edge>
    <edge id=":antrim_124" function="internal">
        <lane id=":antrim_124_0" index="0" speed="10.00" length="46.36" shape="2247.25,3476.78 2262.13,3477.85 2271.44,3474.39 2275.17,3466.39 2273.32,3453.85"/>
    </edge>
    <edge id=":antrim_125" function="internal">
        <lane id=":antrim_125_0" index="0" speed="10.00" length="47.15" shape="2247.25,3476.78 2262.27,3477.84 2271.78,3474.29 2275.79,3466.13 2274.29,3453.36"/>
    </edge>
    <edge id=":antrim_126" function="internal">
        <lane id=":antrim_126_0" index="0" speed="10.00" length="51.80" shape="2246.65,3479.92 2262.43,3480.86 2272.53,3476.62 2276.97,3467.21 2275.74,3452.63"/>
    </edge>
    <edge id=":antrim_127" function="internal">
        <lane id=":antrim_127_0" index="0" speed="10.00" length="53.55" shape="2246.65,3479.92 2262.63,3480.80 2273.17,3476.36 2278.28,3466.59 2277.96,3451.51"/>
    </edge>
    <edge id=":antrim_128" function="internal">
        <lane id=":antrim_128_0" index="0" speed="10.00" length="55.42" shape="2246.65,3479.92 2262.82,3480.74 2273.82,3476.08 2279.63,3465.95 2280.26,3450.35"/>
    </edge>
    <edge id=":antrim_129" function="internal">
        <lane id=":antrim_129_0" index="0" speed="10.00" length="62.29" shape="2246.65,3479.92 2263.46,3480.52 2275.97,3475.12 2284.20,3463.74 2288.12,3446.38"/>
    </edge>
    <edge id=":antrim_130" function="internal">
        <lane id=":antrim_130_0" index="0" speed="10.00" length="40.53" shape="2246.65,3479.92 2261.29,3483.04 2273.76,3486.70 2280.79,3490.71 2279.12,3494.85"/>
    </edge>
    <edge id=":antrim_131" function="internal">
        <lane id=":antrim_131_0" index="0" speed="3.65" length="4.67" shape="2246.65,3479.92 2247.68,3480.93 2247.93,3481.79 2247.38,3482.50 2246.06,3483.07"/>
    </edge>
    <edge id=":athlone_0" function="internal">
        <lane id=":athlone_0_0" index="0" speed="4.58" length="7.89" shape="1255.26,1978.77 1255.52,1981.53 1255.94,1982.40 1256.51,1981.39 1257.24,1978.49"/>
    </edge>