<?xml version="1.0" encoding="UTF-8"?>

<!-- generated on 2025-02-19 12:45:21 by Eclipse SUMO netconvert Version 1.18.0
<configuration xmlns:xsi="http://www.w3.org/2001/XMLSchema-instance" xsi:noNamespaceSchemaLocation="http://sumo.dlr.de/xsd/netconvertConfiguration.xsd">

    <input>
        <node-files value="nod.xml"/>
        <edge-files value="edge_xmls/07441.xml"/>
    </input>

    <output>
        <output-file value="networks/07441.net.xml"/>
    </output>

</configuration>
-->

<net version="1.16" junctionCornerDetail="5" limitTurnSpeed="5.50" xmlns:xsi="http://www.w3.org/2001/XMLSchema-instance" xsi:noNamespaceSchemaLocation="http://sumo.dlr.de/xsd/net_file.xsd">

    <location netOffset="-682.00,4368.00" convBoundary="0.00,0.00,2498.00,3881.00" origBoundary="682.00,-4368.00,3180.00,-487.00" projParameter="!"/>

    <edge id=":antrim_0" function="internal">
        <lane id=":antrim_0_0" index="0" speed="10.00" length="47.78" shape="2293.41,3486.36 2288.32,3486.24 2280.84,3481.10 2270.98,3470.97 2258.73,3455.82"/>
    </edge>
    <edge id=":antrim_1" function="internal">
        <lane id=":antrim_1_0" index="0" speed="10.00" length="39.41" shape="2293.41,3486.36 2288.76,3486.54 2282.74,3482.24 2275.35,3473.46 2266.60,3460.21"/>
    </edge>
    <edge id=":antrim_2" function="internal">
        <lane id=":antrim_2_0" index="0" speed="10.00" length="34.43" shape="2293.41,3486.36 2288.44,3486.41 2283.95,3481.10 2279.88,3471.84 2276.17,3460.02"/>
    </edge>
    <edge id=":antrim_3" function="internal">
        <lane id=":antrim_3_0" index="0" speed="10.00" length="33.59" shape="2293.41,3486.36 2288.61,3486.32 2284.86,3480.71 2281.98,3471.16 2279.77,3459.30"/>
    </edge>
    <edge id=":antrim_4" function="internal">
        <lane id=":antrim_4_0" index="0" speed="10.00" length="43.09" shape="2287.28,3472.32 2284.53,3479.37 2277.30,3476.27 2267.92,3467.08 2258.73,3455.82"/>
    </edge>
    <edge id=":antrim_5" function="internal">
        <lane id=":antrim_5_0" index="0" speed="8.88" length="31.81" shape="2287.28,3472.32 2285.13,3477.64 2279.63,3475.52 2272.79,3468.77 2266.60,3460.21"/>
    </edge>
    <edge id=":antrim_6" function="internal">
        <lane id=":antrim_6_0" index="0" speed="7.13" length="22.17" shape="2287.28,3472.32 2285.97,3475.53 2282.73,3472.95 2278.98,3466.98 2276.17,3460.02"/>
    </edge>
    <edge id=":antrim_7" function="internal">
        <lane id=":antrim_7_0" index="0" speed="6.96" length="21.95" shape="2287.28,3472.32 2280.52,3471.88 2277.02,3469.57 2276.77,3465.37 2279.77,3459.30"/>
    </edge>
    <edge id=":antrim_8" function="internal">
        <lane id=":antrim_8_0" index="0" speed="3.49" length="3.89" shape="2279.30,3459.35 2279.73,3460.75 2279.95,3461.21 2279.96,3460.73 2279.77,3459.30"/>
    </edge>
    <edge id=":antrim_9" function="internal">
        <lane id=":antrim_9_0" index="0" speed="8.15" length="28.27" shape="2279.30,3459.35 2278.40,3464.81 2272.83,3465.23 2265.35,3461.84 2258.73,3455.82"/>
    </edge>
    <edge id=":antrim_10" function="internal">
        <lane id=":antrim_10_0" index="0" speed="6.44" length="17.60" shape="2279.30,3459.35 2278.65,3463.21 2275.05,3464.60 2270.41,3463.58 2266.60,3460.21"/>
    </edge>
    <edge id=":antrim_11" function="internal">
        <lane id=":antrim_11_0" index="0" speed="3.65" length="4.68" shape="2279.30,3459.35 2278.77,3460.70 2278.07,3461.26 2277.20,3461.03 2276.17,3460.02"/>
    </edge>
    <edge id=":antrim_12" function="internal">
        <lane id=":antrim_12_0" index="0" speed="7.03" length="22.28" shape="2256.35,3458.23 2262.42,3463.77 2264.84,3465.22 2263.61,3462.57 2258.73,3455.82"/>
    </edge>
    <edge id=":antrim_13" function="internal">
        <lane id=":antrim_13_0" index="0" speed="7.88" length="27.48" shape="2256.35,3458.23 2265.19,3466.24 2269.84,3469.25 2270.31,3467.23 2266.60,3460.21"/>
    </edge>
    <edge id=":antrim_14" function="internal">
        <lane id=":antrim_14_0" index="0" speed="9.34" length="35.43" shape="2256.35,3458.23 2267.53,3467.91 2274.56,3471.44 2277.44,3468.81 2276.17,3460.02"/>
    </edge>
    <edge id=":antrim_15" function="internal">
        <lane id=":antrim_15_0" index="0" speed="9.93" length="38.21" shape="2256.35,3458.23 2268.07,3468.17 2275.88,3471.66 2279.78,3468.70 2279.77,3459.30"/>
    </edge>
    <edge id=":athlone_0" function="internal">
        <lane id=":athlone_0_0" index="0" speed="10.00" length="39.24" shape="1270.57,1989.29 1266.90,1982.69 1261.19,1972.01 1255.73,1961.23 1252.86,1954.31"/>
    </edge>
    <edge id=":athlone_1" function="internal">
        <lane id=":athlone_1_0" index="0" speed="10.00" length="35.49" shape="1270.57,1989.29 1264.62,1978.20 1260.82,1968.53 1260.46,1961.46 1264.81,1958.20"/>
    </edge>
    <edge id=":athlone_2" function="internal">
        <lane id=":athlone_2_0" index="0" speed="4.86" length="9.64" shape="1270.57,1989.29 1270.36,1986.91 1271.91,1985.10 1274.25,1984.49 1276.39,1985.67"/>
    </edge>
    <edge id=":athlone_3" function="internal">
        <lane id=":athlone_3_0" index="0" speed="3.65" length="4.67" shape="1270.57,1989.29 1270.66,1987.85 1271.15,1987.10 1272.05,1987.05 1273.34,1987.68"/>
    </edge>
    <edge id=":athlone_4" function="internal">
        <lane id=":athlone_4_0" index="0" speed="9.99" length="29.51" shape="1265.10,1960.36 1263.41,1962.54 1264.73,1967.49 1269.06,1975.20 1276.39,1985.67"/>
    </edge>
    <edge id=":athlone_5" function="internal">
        <lane id=":athlone_5_0" index="0" speed="10.00" length="30.31" shape="1265.10,1960.36 1263.12,1962.69 1263.83,1968.03 1267.24,1976.36 1273.34,1987.68"/>
    </edge>
    <edge id=":athlone_6" function="internal">
        <lane id=":athlone_6_0" index="0" speed="8.29" length="15.62" shape="1265.10,1960.36 1260.47,1960.95 1256.89,1960.14 1254.35,1957.93 1252.86,1954.31"/>
    </edge>
    <edge id=":athlone_7" function="internal">
        <lane id=":athlone_7_0" index="0" speed="6.56" length="19.46" shape="1265.10,1960.36 1272.13,1958.44 1274.43,1957.45 1271.99,1957.36 1264.81,1958.20"/>
    </edge>
    <edge id=":belfast_0" function="internal">
        <lane id=":belfast_0_0" index="0" speed="3.97" length="5.51" shape="2496.49,3350.76 2495.78,3348.93 2495.35,3348.39 2495.23,3349.16 2495.39,3351.23"/>
    </edge>
    <edge id=":belfast_1" function="internal">
        <lane id=":belfast_1_0" index="0" speed="9.55" length="17.30" shape="2496.49,3350.76 2497.48,3355.43 2496.98,3359.49 2495.01,3362.94 2491.57,3365.79"/>
    </edge>
    <edge id=":belfast_2" function="internal">
        <lane id=":belfast_2_0" index="0" speed="6.96" length="15.13" shape="2496.49,3350.76 2496.01,3353.92 2493.20,3356.65 2489.30,3358.38 2485.55,3358.55"/>
    </edge>
    <edge id=":belfast_3" function="internal">
        <lane id=":belfast_3_0" index="0" speed="5.08" length="10.69" shape="2496.49,3350.76 2496.25,3353.44 2494.23,3355.17 2491.59,3355.44 2489.50,3353.76"/>
    </edge>
    <edge id=":belfast_4" function="internal">
        <lane id=":belfast_4_0" index="0" speed="3.84" length="5.00" shape="2496.42,3350.79 2495.76,3349.13 2495.37,3348.65 2495.24,3349.35 2495.39,3351.23"/>
    </edge>
    <edge id=":belfast_5" function="internal">
        <lane id=":belfast_5_0" index="0" speed="9.51" length="17.27" shape="2496.42,3350.79 2497.44,3355.44 2496.97,3359.49 2495.01,3362.94 2491.57,3365.79"/>
    </edge>
    <edge id=":belfast_6" function="internal">
        <lane id=":belfast_6_0" index="0" speed="6.94" length="15.06" shape="2496.42,3350.79 2495.96,3353.92 2493.17,3356.65 2489.28,3358.38 2485.55,3358.55"/>
    </edge>
    <edge id=":belfast_7" function="internal">
        <lane id=":belfast_7_0" index="0" speed="3.82" length="5.11" shape="2496.42,3350.79 2496.10,3351.81 2494.86,3352.63 2493.41,3352.96 2492.45,3352.49"/>
    </edge>
    <edge id=":belfast_8" function="internal">
        <lane id=":belfast_8_0" index="0" speed="5.97" length="14.81" shape="2498.99,3349.69 2496.80,3344.94 2495.46,3343.61 2495.00,3345.71 2495.39,3351.23"/>
    </edge>
    <edge id=":belfast_9" function="internal">
        <lane id=":belfast_9_0" index="0" speed="9.89" length="19.50" shape="2498.99,3349.69 2499.94,3354.18 2499.02,3358.36 2496.23,3362.23 2491.57,3365.79"/>
    </edge>
    <edge id=":belfast_10" function="internal">
        <lane id=":belfast_10_0" index="0" speed="6.78" length="14.65" shape="2496.05,3350.95 2495.69,3353.97 2492.98,3356.64 2489.19,3358.36 2485.55,3358.55"/>
    </edge>
    <edge id=":belfast_11" function="internal">
        <lane id=":belfast_11_0" index="0" speed="3.95" length="5.72" shape="2496.05,3350.95 2495.73,3352.69 2495.02,3353.52 2493.93,3353.46 2492.45,3352.49"/>
    </edge>
    <edge id=":bray_0" function="internal">
        <lane id=":bray_0_0" index="0" speed="10.00" length="38.69" shape="2425.67,1700.52 2432.86,1684.38 2436.97,1673.11 2438.00,1666.71 2435.96,1665.18"/>
    </edge>
    <edge id=":bray_1" function="internal">
        <lane id=":bray_1_0" index="0" speed="10.00" length="46.85" shape="2425.67,1700.52 2429.52,1692.56 2435.83,1679.09 2441.55,1665.56 2443.66,1657.38"/>
    </edge>
    <edge id=":bray_2" function="internal">
        <lane id=":bray_2_0" index="0" speed="10.00" length="39.39" shape="2428.91,1701.89 2434.80,1685.12 2437.93,1673.42 2438.32,1666.77 2435.96,1665.18"/>
    </edge>
    <edge id=":bray_3" function="internal">
        <lane id=":bray_3_0" index="0" speed="10.00" length="46.97" shape="2428.91,1701.89 2432.09,1693.65 2437.31,1679.72 2442.01,1665.75 2443.66,1657.38"/>
    </edge>
    <edge id=":bray_4" function="internal">
        <lane id=":bray_4_0" index="0" speed="8.68" length="22.70" shape="2439.47,1684.61 2440.92,1675.36 2440.81,1669.04 2439.16,1665.64 2435.96,1665.18"/>
    </edge>
    <edge id=":bray_5" function="internal">
        <lane id=":bray_5_0" index="0" speed="10.00" length="27.62" shape="2439.47,1684.61 2440.69,1678.98 2442.31,1671.00 2443.55,1663.02 2443.66,1657.38"/>
    </edge>
    <edge id=":carlow_0" function="internal">
        <lane id=":carlow_0_0" index="0" speed="6.83" length="16.95" shape="1885.88,1159.19 1884.66,1156.50 1882.59,1156.84 1879.67,1160.22 1875.90,1166.63"/>
    </edge>
    <edge id=":carlow_1" function="internal">
        <lane id=":carlow_1_0" index="0" speed="7.45" length="18.87" shape="1885.88,1159.19 1884.38,1155.99 1881.68,1155.82 1877.76,1158.66 1872.64,1164.52"/>
    </edge>
    <edge id=":carrick_0" function="internal">
        <lane id=":carrick_0_0" index="0" speed="6.48" length="11.69" shape="1131.54,2573.95 1130.83,2576.48 1131.72,2578.41 1134.19,2579.74 1138.25,2580.47"/>
    </edge>
    <edge id=":carrick_1" function="internal">
        <lane id=":carrick_1_0" index="0" speed="8.48" length="16.00" shape="1131.54,2573.95 1130.74,2577.11 1131.72,2580.19 1134.49,2583.21 1139.04,2586.15"/>
    </edge>
    <edge id=":carrick_2" function="internal">
        <lane id=":carrick_2_0" index="0" speed="8.89" length="13.37" shape="1131.54,2573.95 1129.18,2577.75 1126.77,2580.35 1124.31,2581.75 1121.79,2581.93"/>
    </edge>
    <edge id=":castlebar_0" function="internal">
        <lane id=":castlebar_0_0" index="0" speed="6.54" length="15.67" shape="312.23,2458.97 310.75,2455.60 311.12,2451.15 312.97,2447.34 315.92,2445.90"/>
    </edge>
    <edge id=":castlebar_1" function="internal">
        <lane id=":castlebar_1_0" index="0" speed="6.82" length="17.53" shape="312.23,2458.97 309.52,2454.87 309.34,2450.58 311.52,2447.37 315.86,2446.49"/>
    </edge>
    <edge id=":castlebar_2" function="internal">
        <lane id=":castlebar_2_0" index="0" speed="5.85" length="13.45" shape="314.58,2455.59 312.01,2452.93 311.42,2449.59 312.76,2446.84 315.92,2445.90"/>
    </edge>
    <edge id=":castlebar_3" function="internal">
        <lane id=":castlebar_3_0" index="0" speed="5.28" length="10.75" shape="314.58,2455.59 313.22,2453.50 313.07,2450.35 314.00,2447.54 315.86,2446.49"/>
    </edge>
    <edge id=":castlebar_4" function="internal">
        <lane id=":castlebar_4_0" index="0" speed="4.03" length="6.04" shape="315.50,2450.15 314.24,2449.30 313.94,2447.80 314.53,2446.42 315.92,2445.90"/>
    </edge>
    <edge id=":castlebar_5" function="internal">
        <lane id=":castlebar_5_0" index="0" speed="3.84" length="5.37" shape="315.50,2450.15 314.22,2449.10 313.85,2448.14 314.40,2447.27 315.86,2446.49"/>
    </edge>
    <edge id=":castlebar_6" function="internal">
        <lane id=":castlebar_6_0" index="0" speed="5.78" length="12.42" shape="316.99,2439.91 312.82,2442.18 311.25,2443.93 312.29,2445.17 315.92,2445.90"/>
    </edge>
    <edge id=":castlebar_7" function="internal">
        <lane id=":castlebar_7_0" index="0" speed="5.95" length="13.04" shape="316.99,2439.91 312.67,2442.28 311.05,2444.17 312.11,2445.57 315.86,2446.49"/>
    </edge>
    <edge id=":castlebar_8" function="internal">
        <lane id=":castlebar_8_0" index="0" speed="6.70" length="15.62" shape="314.85,2436.41 310.90,2440.14 309.77,2442.97 311.44,2444.89 315.92,2445.90"/>
    </edge>
    <edge id=":castlebar_9" function="internal">
        <lane id=":castlebar_9_0" index="0" speed="6.84" length="16.08" shape="314.85,2436.41 310.84,2440.23 309.67,2443.18 311.34,2445.27 315.86,2446.49"/>
    </edge>
    <edge id=":cavan_0" function="internal">
        <lane id=":cavan_0_0" index="0" speed="10.00" length="16.35" shape="1680.65,2618.99 1682.62,2622.50 1684.53,2626.34 1685.88,2630.29 1686.18,2634.14"/>
    </edge>
    <edge id=":cavan_1" function="internal">
        <lane id=":cavan_1_0" index="0" speed="10.00" length="15.57" shape="1677.04,2622.19 1681.23,2625.58 1684.15,2628.71 1685.80,2631.56 1686.18,2634.14"/>
    </edge>
    <edge id=":cavan_2" function="internal">
        <lane id=":cavan_2_0" index="0" speed="8.05" length="14.05" shape="1675.51,2627.12 1680.39,2628.12 1683.80,2629.63 1685.73,2631.63 1686.18,2634.14"/>
    </edge>
    <edge id=":cavan_3" function="internal">
        <lane id=":cavan_3_0" index="0" speed="7.89" length="13.93" shape="1675.47,2627.56 1680.37,2628.34 1683.79,2629.70 1685.73,2631.63 1686.18,2634.14"/>
    </edge>
    <edge id=":clonmel_0" function="internal">
        <lane id=":clonmel_0_0" index="0" speed="10.00" length="8.45" shape="1384.26,614.80 1383.74,612.37 1383.13,610.75 1382.14,609.33 1380.46,607.49"/>
    </edge>
    <edge id=":clonmel_1" function="internal">
        <lane id=":clonmel_1_0" index="0" speed="7.77" length="23.87" shape="1384.26,614.80 1385.13,611.69 1389.11,613.81 1394.70,619.06 1400.40,625.32"/>
    </edge>
    <edge id=":clonmel_2" function="internal">
        <lane id=":clonmel_2_0" index="0" speed="7.27" length="24.37" shape="1384.26,614.80 1386.03,623.48 1387.05,626.16 1387.32,622.85 1386.85,613.54"/>
    </edge>
    <edge id=":clonmel_3" function="internal">
        <lane id=":clonmel_3_0" index="0" speed="10.00" length="8.40" shape="1385.05,614.42 1384.08,612.13 1383.24,610.64 1382.16,609.31 1380.46,607.49"/>
    </edge>
    <edge id=":clonmel_4" function="internal">
        <lane id=":clonmel_4_0" index="0" speed="4.30" length="6.59" shape="1385.05,614.42 1386.00,616.47 1386.62,617.00 1386.90,616.03 1386.85,613.54"/>
    </edge>
    <edge id=":clonmel_5" function="internal">
        <lane id=":clonmel_5_0" index="0" speed="7.99" length="27.50" shape="1385.05,614.42 1392.97,611.38 1398.17,612.19 1400.65,616.83 1400.40,625.32"/>
    </edge>
    <edge id=":clonmel_6" function="internal">
        <lane id=":clonmel_6_0" index="0" speed="10.00" length="26.66" shape="1382.80,605.30 1400.40,625.32"/>
    </edge>
    <edge id=":clonmel_7" function="internal">
        <lane id=":clonmel_7_0" index="0" speed="10.00" length="9.50" shape="1382.80,605.30 1384.71,607.36 1385.88,608.96 1386.52,610.79 1386.85,613.54"/>
    </edge>
    <edge id=":clonmel_8" function="internal">
        <lane id=":clonmel_8_0" index="0" speed="3.65" length="4.67" shape="1382.80,605.30 1383.03,606.72 1382.72,607.56 1381.86,607.82 1380.46,607.49"/>
    </edge>
    <edge id=":cork_0" function="internal">
        <lane id=":cork_0_0" index="0" speed="9.61" length="39.40" shape="825.02,51.85 820.54,33.26 817.02,21.61 814.46,16.89 812.86,19.10"/>
    </edge>
    <edge id=":cork_1" function="internal">
        <lane id=":cork_1_0" index="0" speed="10.00" length="50.85" shape="825.02,51.85 821.49,34.15 819.55,17.93 820.93,8.42 827.33,10.86"/>
    </edge>
    <edge id=":cork_2" function="internal">
        <lane id=":cork_2_0" index="0" speed="3.34" length="3.52" shape="825.02,51.85 825.33,50.81 825.82,50.35 826.48,50.46 827.32,51.15"/>
    </edge>
    <edge id=":cork_3" function="internal">
        <lane id=":cork_3_0" index="0" speed="7.69" length="27.43" shape="830.60,50.15 827.08,40.58 825.36,37.56 825.44,41.08 827.32,51.15"/>
    </edge>
    <edge id=":cork_4" function="internal">
        <lane id=":cork_4_0" index="0" speed="10.00" length="41.28" shape="830.60,50.15 823.80,31.70 818.58,20.37 814.93,16.17 812.86,19.10"/>
    </edge>
    <edge id=":cork_5" function="internal">
        <lane id=":cork_5_0" index="0" speed="10.00" length="50.40" shape="830.60,50.15 825.17,33.23 821.20,17.29 821.11,7.95 827.33,10.86"/>
    </edge>
    <edge id=":cork_6" function="internal">
        <lane id=":cork_6_0" index="0" speed="8.03" length="28.64" shape="834.03,48.71 828.97,39.60 826.16,36.96 825.62,40.81 827.32,51.15"/>
    </edge>
    <edge id=":cork_7" function="internal">
        <lane id=":cork_7_0" index="0" speed="10.00" length="39.30" shape="834.03,48.71 825.44,32.35 819.05,21.96 814.85,17.55 812.86,19.10"/>
    </edge>
    <edge id=":cork_8" function="internal">
        <lane id=":cork_8_0" index="0" speed="10.00" length="49.51" shape="836.85,47.19 829.42,31.50 823.24,16.31 821.49,7.48 827.33,10.86"/>
    </edge>
    <edge id=":cork_9" function="internal">
        <lane id=":cork_9_0" index="0" speed="9.80" length="43.15" shape="838.39,46.36 830.35,33.15 825.82,29.54 824.82,35.54 827.32,51.15"/>
    </edge>
    <edge id=":cork_10" function="internal">
        <lane id=":cork_10_0" index="0" speed="10.00" length="43.59" shape="838.39,46.36 828.29,29.02 820.67,18.69 815.52,15.39 812.86,19.10"/>
    </edge>
    <edge id=":cork_11" function="internal">
        <lane id=":cork_11_0" index="0" speed="10.00" length="49.01" shape="838.39,46.36 830.51,31.04 823.87,16.14 821.72,7.48 827.33,10.86"/>
    </edge>
    <edge id=":cork_12" function="internal">
        <lane id=":cork_12_0" index="0" speed="10.00" length="41.74" shape="825.00,13.04 822.42,12.51 821.95,18.68 823.58,31.56 827.32,51.15"/>
    </edge>
    <edge id=":cork_13" function="internal">
        <lane id=":cork_13_0" index="0" speed="7.71" length="19.32" shape="825.00,13.04 820.85,9.79 817.45,9.72 814.78,12.82 812.86,19.10"/>
    </edge>
    <edge id=":cork_14" function="internal">
        <lane id=":cork_14_0" index="0" speed="3.65" length="4.67" shape="825.00,13.04 824.76,11.62 825.07,10.78 825.93,10.52 827.33,10.86"/>
    </edge>
    <edge id=":cork_15" function="internal">
        <lane id=":cork_15_0" index="0" speed="10.00" length="20.37" shape="810.74,0.67 813.49,0.29 817.16,1.86 821.78,5.39 827.33,10.86"/>
    </edge>
    <edge id=":cork_16" function="internal">
        <lane id=":cork_16_0" index="0" speed="10.00" length="54.10" shape="810.74,0.67 814.37,3.37 818.45,14.08 822.82,30.70 827.32,51.15"/>
    </edge>
    <edge id=":cork_17" function="internal">
        <lane id=":cork_17_0" index="0" speed="7.89" length="21.47" shape="810.74,0.67 813.65,0.76 814.59,4.88 814.13,11.50 812.86,19.10"/>
    </edge>
    <edge id=":craigavon_0" function="internal">
        <lane id=":craigavon_0_0" index="0" speed="4.60" length="8.24" shape="2153.45,3145.65 2152.08,3147.79 2150.68,3148.53 2149.26,3147.85 2147.81,3145.76"/>
    </edge>
    <edge id=":craigavon_1" function="internal">
        <lane id=":craigavon_1_0" index="0" speed="5.98" length="13.00" shape="2140.43,3144.48 2143.80,3148.47 2146.15,3150.01 2147.49,3149.10 2147.81,3145.76"/>
    </edge>
    <edge id=":craigavon_2" function="internal">
        <lane id=":craigavon_2_0" index="0" speed="6.83" length="15.77" shape="2137.45,3147.28 2142.15,3150.62 2145.44,3151.47 2147.33,3149.85 2147.81,3145.76"/>
    </edge>
    <edge id=":craigavon_3" function="internal">
        <lane id=":craigavon_3_0" index="0" speed="10.00" length="27.40" shape="2135.87,3169.30 2141.31,3164.06 2145.10,3158.39 2147.27,3152.29 2147.81,3145.76"/>
    </edge>
    <edge id=":craigavon_4" function="internal">
        <lane id=":craigavon_4_0" index="0" speed="10.00" length="28.08" shape="2138.88,3172.20 2141.57,3167.08 2144.54,3159.35 2146.92,3151.43 2147.81,3145.76"/>
    </edge>
    <edge id=":derry_0" function="internal">
        <lane id=":derry_0_0" index="0" speed="4.22" length="6.73" shape="1617.28,3862.05 1617.83,3859.59 1617.88,3858.72 1617.45,3859.45 1616.53,3861.76"/>
    </edge>
    <edge id=":derry_1" function="internal">
        <lane id=":derry_1_0" index="0" speed="5.74" length="12.88" shape="1617.28,3862.05 1616.47,3866.58 1616.90,3868.46 1618.58,3867.69 1621.51,3864.27"/>
    </edge>
    <edge id=":derry_2" function="internal">
        <lane id=":derry_2_0" index="0" speed="5.80" length="13.04" shape="1611.31,3862.24 1611.93,3866.45 1613.00,3867.78 1614.54,3866.21 1616.53,3861.76"/>
    </edge>
    <edge id=":derry_3" function="internal">
        <lane id=":derry_3_0" index="0" speed="7.06" length="17.93" shape="1611.31,3862.24 1612.32,3867.75 1614.35,3869.92 1617.42,3868.76 1621.51,3864.27"/>
    </edge>
    <edge id=":dublin_0" function="internal">
        <lane id=":dublin_0_0" index="0" speed="4.13" length="6.05" shape="2321.24,1824.47 2321.58,1826.66 2321.93,1827.40 2322.29,1826.67 2322.65,1824.48"/>
    </edge>
    <edge id=":dublin_1" function="internal">
        <lane id=":dublin_1_0" index="0" speed="7.14" length="12.75" shape="2321.24,1824.47 2320.33,1822.34 2318.20,1821.29 2314.85,1821.32 2310.28,1822.44"/>
    </edge>
    <edge id=":dublin_2" function="internal">
        <lane id=":dublin_2_0" index="0" speed="10.00" length="17.86" shape="2321.24,1824.47 2320.23,1821.24 2317.95,1818.04 2314.39,1814.86 2309.56,1811.71"/>
    </edge>
    <edge id=":dublin_3" function="internal">
        <lane id=":dublin_3_0" index="0" speed="5.42" length="10.13" shape="2308.73,1817.18 2311.93,1816.41 2313.13,1815.25 2312.34,1813.68 2309.56,1811.71"/>
    </edge>
    <edge id=":dublin_4" function="internal">
        <lane id=":dublin_4_0" index="0" speed="8.36" length="18.71" shape="2308.73,1817.18 2315.27,1816.87 2319.77,1817.98 2322.23,1820.52 2322.65,1824.48"/>
    </edge>
    <edge id=":dublin_5" function="internal">
        <lane id=":dublin_5_0" index="0" speed="4.55" length="8.01" shape="2308.73,1817.18 2311.09,1817.91 2312.13,1819.03 2311.87,1820.54 2310.28,1822.44"/>
    </edge>
    <edge id=":dundalk_0" function="internal">
        <lane id=":dundalk_0_0" index="0" speed="3.86" length="5.05" shape="2240.34,2622.41 2239.05,2621.08 2238.47,2620.74 2238.59,2621.40 2239.41,2623.06"/>
    </edge>
    <edge id=":dundalk_1" function="internal">
        <lane id=":dundalk_1_0" index="0" speed="5.29" length="8.35" shape="2240.34,2622.41 2242.06,2623.80 2243.50,2623.80 2244.65,2622.42 2245.51,2619.65"/>
    </edge>
    <edge id=":dundalk_2" function="internal">
        <lane id=":dundalk_2_0" index="0" speed="10.00" length="13.28" shape="2240.34,2622.41 2242.69,2625.01 2244.72,2627.46 2246.43,2630.09 2247.82,2633.26"/>
    </edge>
    <edge id=":dundalk_3" function="internal">
        <lane id=":dundalk_3_0" index="0" speed="8.59" length="22.80" shape="2240.34,2622.41 2242.47,2627.15 2240.21,2630.84 2234.92,2633.64 2227.94,2635.71"/>
    </edge>
    <edge id=":dundalk_4" function="internal">
        <lane id=":dundalk_4_0" index="0" speed="5.22" length="11.31" shape="2240.34,2622.41 2238.28,2625.22 2236.30,2626.10 2234.41,2625.04 2232.61,2622.06"/>
    </edge>
    <edge id=":dundalk_5" function="internal">
        <lane id=":dundalk_5_0" index="0" speed="6.02" length="13.31" shape="2226.51,2626.64 2231.89,2626.83 2234.71,2626.13 2234.94,2624.54 2232.61,2622.06"/>
    </edge>
    <edge id=":dundalk_6" function="internal">
        <lane id=":dundalk_6_0" index="0" speed="7.05" length="15.67" shape="2226.51,2626.64 2233.18,2626.97 2237.56,2626.49 2239.63,2625.19 2239.41,2623.06"/>
    </edge>
    <edge id=":dundalk_7" function="internal">
        <lane id=":dundalk_7_0" index="0" speed="10.00" length="22.06" shape="2226.51,2626.64 2234.15,2626.82 2239.87,2625.71 2243.65,2623.32 2245.51,2619.65"/>
    </edge>
    <edge id=":dundalk_8" function="internal">
        <lane id=":dundalk_8_0" index="0" speed="10.00" length="22.92" shape="2226.51,2626.64 2235.22,2627.75 2241.67,2629.23 2245.87,2631.06 2247.82,2633.26"/>
    </edge>
    <edge id=":dundalk_9" function="internal">
        <lane id=":dundalk_9_0" index="0" speed="5.77" length="13.40" shape="2226.51,2626.64 2230.26,2628.37 2231.75,2630.46 2230.98,2632.91 2227.94,2635.71"/>
    </edge>
    <edge id=":dundalk_10" function="internal">
        <lane id=":dundalk_10_0" index="0" speed="5.44" length="10.05" shape="2230.92,2640.52 2232.67,2637.69 2232.75,2635.94 2231.18,2635.28 2227.94,2635.71"/>
    </edge>
    <edge id=":dundalk_11" function="internal">
        <lane id=":dundalk_11_0" index="0" speed="9.66" length="20.74" shape="2230.92,2640.52 2234.54,2634.77 2236.03,2629.77 2235.38,2625.53 2232.61,2622.06"/>
    </edge>
    <edge id=":dundalk_12" function="internal">
        <lane id=":dundalk_12_0" index="0" speed="10.00" length="19.91" shape="2230.92,2640.52 2235.39,2634.27 2238.29,2629.28 2239.63,2625.55 2239.41,2623.06"/>
    </edge>
    <edge id=":dundalk_13" function="internal">
        <lane id=":dundalk_13_0" index="0" speed="10.00" length="25.94" shape="2233.46,2642.46 2237.76,2636.23 2241.38,2629.91 2244.06,2624.16 2245.51,2619.65"/>
    </edge>
    <edge id=":dundalk_14" function="internal">
        <lane id=":dundalk_14_0" index="0" speed="7.86" length="19.76" shape="2233.46,2642.46 2238.89,2635.96 2243.09,2632.26 2246.07,2631.36 2247.82,2633.26"/>
    </edge>
    <edge id=":ennis_0" function="internal">
        <lane id=":ennis_0_0" index="0" speed="3.81" length="4.99" shape="485.47,1219.87 486.38,1221.50 486.81,1222.01 486.76,1221.38 486.23,1219.63"/>
    </edge>
    <edge id=":ennis_1" function="internal">
        <lane id=":ennis_1_0" index="0" speed="5.49" length="10.80" shape="490.60,1216.61 487.57,1214.57 485.83,1214.40 485.38,1216.08 486.23,1219.63"/>
    </edge>
    <edge id=":ennis_2" function="internal">
        <lane id=":ennis_2_0" index="0" speed="10.00" length="16.02" shape="484.33,1204.12 483.52,1205.97 483.56,1209.17 484.46,1213.72 486.23,1219.63"/>
    </edge>
    <edge id=":enniskillen_0" function="internal">
        <lane id=":enniskillen_0_0" index="0" speed="10.00" length="49.49" shape="1450.37,3015.39 1451.51,3024.49 1453.56,3040.02 1455.91,3055.45 1457.97,3064.26"/>
    </edge>
    <edge id=":enniskillen_1" function="internal">
        <lane id=":enniskillen_1_0" index="0" speed="10.00" length="47.42" shape="1450.37,3015.39 1452.54,3033.57 1453.59,3048.84 1452.88,3058.79 1449.78,3061.03"/>
    </edge>
    <edge id=":enniskillen_2" function="internal">
        <lane id=":enniskillen_2_0" index="0" speed="10.00" length="49.54" shape="1447.01,3015.96 1448.83,3024.95 1452.01,3040.28 1455.43,3055.53 1457.97,3064.26"/>
    </edge>
    <edge id=":enniskillen_3" function="internal">
        <lane id=":enniskillen_3_0" index="0" speed="10.00" length="47.02" shape="1447.01,3015.96 1450.49,3033.83 1452.66,3048.95 1452.70,3058.84 1449.78,3061.03"/>
    </edge>
    <edge id=":enniskillen_4" function="internal">
        <lane id=":enniskillen_4_0" index="0" speed="6.62" length="6.92" shape="1452.68,3066.78 1452.72,3064.96 1452.24,3063.39 1451.26,3062.08 1449.78,3061.03"/>
    </edge>
    <edge id=":enniskillen_5" function="internal">
        <lane id=":enniskillen_5_0" index="0" speed="5.53" length="10.75" shape="1452.68,3066.78 1453.56,3062.90 1454.73,3061.19 1456.20,3061.64 1457.97,3064.26"/>
    </edge>
    <edge id=":galway_0" function="internal">
        <lane id=":galway_0_0" index="0" speed="6.48" length="17.26" shape="491.59,1748.53 487.10,1747.68 486.08,1748.67 488.52,1751.50 494.42,1756.17"/>
    </edge>
    <edge id=":galway_1" function="internal">
        <lane id=":galway_1_0" index="0" speed="7.21" length="20.66" shape="491.59,1748.53 486.04,1747.60 484.27,1749.04 486.26,1752.84 492.02,1759.02"/>
    </edge>
    <edge id=":galway_2" function="internal">
        <lane id=":galway_2_0" index="0" speed="10.00" length="28.48" shape="473.35,1737.39 474.45,1739.66 478.33,1743.54 484.98,1749.05 494.42,1756.17"/>
    </edge>
    <edge id=":galway_3" function="internal">
        <lane id=":galway_3_0" index="0" speed="10.00" length="28.80" shape="473.35,1737.39 474.28,1739.89 477.71,1744.33 483.62,1750.71 492.02,1759.02"/>
    </edge>
    <edge id=":kilkenny_0" function="internal">
        <lane id=":kilkenny_0_0" index="0" speed="7.54" length="8.78" shape="1685.45,953.92 1687.45,956.45 1688.72,958.56 1689.26,960.26 1689.08,961.56"/>
        <lane id=":kilkenny_0_1" index="1" speed="6.65" length="6.65" shape="1685.45,953.92 1686.42,955.38 1686.87,956.89 1686.81,958.47 1686.22,960.12"/>
    </edge>
    <edge id=":letterkenny_0" function="internal">
        <lane id=":letterkenny_0_0" index="0" speed="5.62" length="11.92" shape="1341.94,3788.75 1343.55,3792.62 1344.92,3793.87 1346.05,3792.49 1346.95,3788.50"/>
    </edge>
    <edge id=":letterkenny_1" function="internal">
        <lane id=":letterkenny_1_0" index="0" speed="6.96" length="15.28" shape="1341.94,3788.75 1343.89,3792.61 1346.34,3793.98 1349.30,3792.87 1352.75,3789.27"/>
        <lane id=":letterkenny_1_1" index="1" speed="7.75" length="19.27" shape="1341.94,3788.75 1344.51,3794.11 1347.59,3796.30 1351.18,3795.34 1355.29,3791.21"/>
    </edge>