<?xml version="1.0" encoding="UTF-8"?>

<!-- generated on 2025-02-19 12:47:38 by Eclipse SUMO netconvert Version 1.18.0
<configuration xmlns:xsi="http://www.w3.org/2001/XMLSchema-instance" xsi:noNamespaceSchemaLocation="http://sumo.dlr.de/xsd/netconvertConfiguration.xsd">

    <input>
        <node-files value="nod.xml"/>
        <edge-files value="edge_xmls/07798.xml"/>
    </input>

    <output>
        <output-file value="networks/07798.net.xml"/>
    </output>

</configuration>
-->

<net version="1.16" junctionCornerDetail="5" limitTurnSpeed="5.50" xmlns:xsi="http://www.w3.org/2001/XMLSchema-instance" xsi:noNamespaceSchemaLocation="http://sumo.dlr.de/xsd/net_file.xsd">

    <location netOffset="-682.00,4368.00" convBoundary="0.00,0.00,2498.00,3881.00" origBoundary="682.00,-4368.00,3180.00,-487.00" projParameter="!"/>

    <edge id=":antrim_0" function="internal">
        <lane id=":antrim_0_0" index="0" speed="10.00" length="53.32" shape="2285.36,3442.04 2285.89,3463.25 2285.20,3479.02 2283.28,3489.35 2280.15,3494.25"/>
    </edge>
    <edge id=":antrim_1" function="internal">
        <lane id=":antrim_1_0" index="0" speed="10.00" length="48.40" shape="2285.36,3442.04 2282.63,3452.26 2275.61,3465.84 2267.00,3477.19 2259.48,3480.69"/>
    </edge>
    <edge id=":antrim_2" function="internal">
        <lane id=":antrim_2_0" index="0" speed="10.00" length="59.10" shape="2285.36,3442.04 2285.04,3460.59 2281.44,3475.41 2273.33,3483.16 2259.51,3480.51"/>
    </edge>
    <edge id=":antrim_3" function="internal">
        <lane id=":antrim_3_0" index="0" speed="10.00" length="38.04" shape="2285.36,3442.04 2282.69,3450.63 2275.92,3460.41 2267.88,3467.37 2261.37,3467.50"/>
    </edge>
    <edge id=":antrim_4" function="internal">
        <lane id=":antrim_4_0" index="0" speed="8.55" length="29.77" shape="2285.36,3442.04 2283.09,3449.30 2277.35,3456.33 2270.69,3460.39 2265.68,3458.68"/>
    </edge>
    <edge id=":antrim_5" function="internal">
        <lane id=":antrim_5_0" index="0" speed="7.43" length="23.38" shape="2285.36,3442.04 2283.46,3447.78 2278.76,3453.40 2273.51,3456.59 2269.96,3455.07"/>
    </edge>
    <edge id=":antrim_6" function="internal">
        <lane id=":antrim_6_0" index="0" speed="7.96" length="27.21" shape="2285.36,3442.04 2283.80,3450.14 2279.55,3456.44 2274.40,3458.74 2270.17,3454.89"/>
    </edge>
    <edge id=":antrim_7" function="internal">
        <lane id=":antrim_7_0" index="0" speed="4.29" length="7.20" shape="2285.36,3442.04 2279.86,3446.69"/>
    </edge>
    <edge id=":antrim_8" function="internal">
        <lane id=":antrim_8_0" index="0" speed="3.96" length="5.89" shape="2285.36,3442.04 2285.57,3443.85 2285.12,3444.88 2284.03,3445.15 2282.28,3444.65"/>
    </edge>
    <edge id=":antrim_9" function="internal">
        <lane id=":antrim_9_0" index="0" speed="4.48" length="7.85" shape="2280.73,3445.96 2280.03,3443.27 2279.65,3442.49 2279.60,3443.63 2279.86,3446.69"/>
    </edge>
    <edge id=":antrim_10" function="internal">
        <lane id=":antrim_10_0" index="0" speed="4.87" length="9.46" shape="2280.73,3445.96 2281.59,3449.07 2282.13,3449.88 2282.36,3448.41 2282.28,3444.65"/>
    </edge>
    <edge id=":antrim_11" function="internal">
        <lane id=":antrim_11_0" index="0" speed="10.00" length="50.14" shape="2280.73,3445.96 2284.44,3464.78 2285.58,3479.11 2284.15,3488.93 2280.15,3494.25"/>
    </edge>
    <edge id=":antrim_12" function="internal">
        <lane id=":antrim_12_0" index="0" speed="10.00" length="43.20" shape="2280.73,3445.96 2279.45,3455.47 2273.99,3467.74 2266.60,3477.80 2259.48,3480.69"/>
    </edge>
    <edge id=":antrim_13" function="internal">
        <lane id=":antrim_13_0" index="0" speed="10.00" length="39.94" shape="2277.99,3448.27 2277.08,3457.54 2272.47,3469.18 2266.00,3478.43 2259.51,3480.51"/>
    </edge>
    <edge id=":antrim_14" function="internal">
        <lane id=":antrim_14_0" index="0" speed="8.62" length="29.31" shape="2277.99,3448.27 2277.08,3455.58 2272.70,3463.18 2266.82,3468.13 2261.37,3467.50"/>
    </edge>
    <edge id=":antrim_15" function="internal">
        <lane id=":antrim_15_0" index="0" speed="6.69" length="18.84" shape="2277.99,3448.27 2276.98,3452.75 2273.35,3457.16 2268.95,3459.73 2265.68,3458.68"/>
    </edge>
    <edge id=":antrim_16" function="internal">
        <lane id=":antrim_16_0" index="0" speed="5.84" length="14.64" shape="2277.99,3448.27 2277.63,3452.49 2275.33,3455.82 2272.36,3457.08 2269.96,3455.07"/>
    </edge>
    <edge id=":antrim_17" function="internal">
        <lane id=":antrim_17_0" index="0" speed="5.35" length="12.00" shape="2277.99,3448.27 2277.29,3451.15 2274.87,3454.01 2272.05,3455.65 2270.17,3454.89"/>
    </edge>
    <edge id=":antrim_18" function="internal">
        <lane id=":antrim_18_0" index="0" speed="7.15" length="23.02" shape="2276.53,3449.51 2278.93,3457.13 2280.29,3459.20 2280.60,3455.72 2279.86,3446.69"/>
    </edge>
    <edge id=":antrim_19" function="internal">
        <lane id=":antrim_19_0" index="0" speed="8.07" length="29.30" shape="2276.53,3449.51 2279.59,3458.79 2281.57,3461.07 2282.47,3456.36 2282.28,3444.65"/>
    </edge>
    <edge id=":antrim_20" function="internal">
        <lane id=":antrim_20_0" index="0" speed="10.00" length="46.20" shape="2276.53,3449.51 2281.01,3467.40 2283.11,3480.82 2282.82,3489.77 2280.15,3494.25"/>
    </edge>
    <edge id=":antrim_21" function="internal">
        <lane id=":antrim_21_0" index="0" speed="10.00" length="38.34" shape="2276.53,3449.51 2276.05,3458.43 2272.03,3469.48 2265.99,3478.34 2259.48,3480.69"/>
    </edge>
    <edge id=":antrim_22" function="internal">
        <lane id=":antrim_22_0" index="0" speed="10.00" length="38.32" shape="2276.53,3449.51 2275.99,3458.54 2271.87,3469.77 2265.82,3478.61 2259.51,3480.51"/>
    </edge>
    <edge id=":antrim_23" function="internal">
        <lane id=":antrim_23_0" index="0" speed="8.25" length="27.19" shape="2276.53,3449.51 2275.85,3456.27 2271.86,3463.38 2266.42,3468.05 2261.37,3467.50"/>
    </edge>
    <edge id=":antrim_24" function="internal">
        <lane id=":antrim_24_0" index="0" speed="6.28" length="16.64" shape="2276.53,3449.51 2275.72,3453.44 2272.51,3457.32 2268.59,3459.60 2265.68,3458.68"/>
    </edge>
    <edge id=":antrim_25" function="internal">
        <lane id=":antrim_25_0" index="0" speed="4.96" length="10.10" shape="2276.53,3449.51 2275.99,3451.91 2273.95,3454.31 2271.56,3455.70 2269.96,3455.07"/>
    </edge>
    <edge id=":antrim_26" function="internal">
        <lane id=":antrim_26_0" index="0" speed="4.89" length="9.78" shape="2276.53,3449.51 2276.00,3451.84 2274.03,3454.16 2271.71,3455.51 2270.17,3454.89"/>
    </edge>
    <edge id=":antrim_27" function="internal">
        <lane id=":antrim_27_0" index="0" speed="4.95" length="9.82" shape="2278.22,3448.08 2279.34,3451.25 2279.99,3452.07 2280.17,3450.56 2279.86,3446.69"/>
    </edge>
    <edge id=":antrim_28" function="internal">
        <lane id=":antrim_28_0" index="0" speed="6.60" length="18.67" shape="2278.22,3448.08 2280.34,3453.83 2281.73,3455.18 2282.37,3452.12 2282.28,3444.65"/>
    </edge>
    <edge id=":antrim_29" function="internal">
        <lane id=":antrim_29_0" index="0" speed="10.00" length="48.27" shape="2278.22,3448.08 2283.04,3465.97 2284.97,3479.63 2284.00,3489.06 2280.15,3494.25"/>
    </edge>
    <edge id=":antrim_30" function="internal">
        <lane id=":antrim_30_0" index="0" speed="10.00" length="40.36" shape="2278.22,3448.08 2277.58,3457.19 2272.96,3468.74 2266.29,3478.11 2259.48,3480.69"/>
    </edge>
    <edge id=":antrim_31" function="internal">
        <lane id=":antrim_31_0" index="0" speed="9.73" length="34.36" shape="2275.57,3450.32 2275.36,3458.67 2271.73,3468.46 2266.12,3475.89 2259.99,3477.15"/>
    </edge>
    <edge id=":antrim_32" function="internal">
        <lane id=":antrim_32_0" index="0" speed="8.00" length="25.81" shape="2275.57,3450.32 2275.04,3456.72 2271.31,3463.50 2266.16,3467.99 2261.37,3467.50"/>
    </edge>
    <edge id=":antrim_33" function="internal">
        <lane id=":antrim_33_0" index="0" speed="6.01" length="15.19" shape="2275.57,3450.32 2274.89,3453.88 2271.95,3457.43 2268.35,3459.51 2265.68,3458.68"/>
    </edge>
    <edge id=":antrim_34" function="internal">
        <lane id=":antrim_34_0" index="0" speed="4.63" length="8.64" shape="2275.57,3450.32 2275.14,3452.37 2273.40,3454.42 2271.34,3455.61 2269.96,3455.07"/>
    </edge>
    <edge id=":antrim_35" function="internal">
        <lane id=":antrim_35_0" index="0" speed="4.98" length="10.33" shape="2275.57,3450.32 2275.93,3453.49 2275.15,3455.31 2273.23,3455.77 2270.17,3454.89"/>
    </edge>
    <edge id=":antrim_36" function="internal">
        <lane id=":antrim_36_0" index="0" speed="6.89" length="20.26" shape="2275.08,3450.74 2278.00,3456.71 2279.77,3458.02 2280.39,3454.68 2279.86,3446.69"/>
    </edge>
    <edge id=":antrim_37" function="internal">
        <lane id=":antrim_37_0" index="0" speed="7.74" length="25.52" shape="2275.08,3450.74 2278.70,3457.87 2281.10,3459.24 2282.30,3454.83 2282.28,3444.65"/>
    </edge>
    <edge id=":antrim_38" function="internal">
        <lane id=":antrim_38_0" index="0" speed="10.00" length="46.17" shape="2275.08,3450.74 2281.29,3467.45 2284.21,3480.27 2283.83,3489.21 2280.15,3494.25"/>
    </edge>
    <edge id=":antrim_39" function="internal">
        <lane id=":antrim_39_0" index="0" speed="10.00" length="44.36" shape="2275.08,3450.74 2278.18,3463.64 2276.59,3474.68 2270.34,3481.24 2259.48,3480.69"/>
    </edge>
    <edge id=":antrim_40" function="internal">
        <lane id=":antrim_40_0" index="0" speed="9.77" length="36.30" shape="2272.52,3452.90 2274.93,3463.58 2273.49,3472.91 2268.44,3478.30 2259.99,3477.15"/>
    </edge>
    <edge id=":antrim_41" function="internal">
        <lane id=":antrim_41_0" index="0" speed="7.20" length="21.37" shape="2272.52,3452.90 2272.40,3458.16 2269.49,3463.91 2265.31,3467.80 2261.37,3467.50"/>
    </edge>
    <edge id=":antrim_42" function="internal">
        <lane id=":antrim_42_0" index="0" speed="5.06" length="10.55" shape="2272.52,3452.90 2272.16,3455.32 2270.11,3457.78 2267.56,3459.24 2265.68,3458.68"/>
    </edge>
    <edge id=":antrim_43" function="internal">
        <lane id=":antrim_43_0" index="0" speed="3.21" length="3.08" shape="2272.52,3452.90 2270.17,3454.89"/>
    </edge>
    <edge id=":antrim_44" function="internal">
        <lane id=":antrim_44_0" index="0" speed="3.71" length="4.90" shape="2272.52,3452.90 2272.69,3454.40 2272.32,3455.26 2271.41,3455.49 2269.96,3455.07"/>
    </edge>
    <edge id=":antrim_45" function="internal">
        <lane id=":antrim_45_0" index="0" speed="5.66" length="13.48" shape="2266.83,3457.71 2264.00,3453.79 2262.72,3452.76 2263.00,3454.63 2264.84,3459.40"/>
    </edge>
    <edge id=":antrim_46" function="internal">
        <lane id=":antrim_46_0" index="0" speed="7.00" length="21.71" shape="2266.83,3457.71 2271.40,3464.00 2273.48,3465.63 2273.07,3462.59 2270.17,3454.89"/>
    </edge>
    <edge id=":antrim_47" function="internal">
        <lane id=":antrim_47_0" index="0" speed="9.46" length="37.03" shape="2266.83,3457.71 2273.98,3466.41 2278.54,3467.48 2280.50,3460.90 2279.86,3446.69"/>
    </edge>
    <edge id=":antrim_48" function="internal">
        <lane id=":antrim_48_0" index="0" speed="9.90" length="39.75" shape="2266.83,3457.71 2274.29,3466.51 2279.34,3467.27 2282.01,3459.98 2282.28,3444.65"/>
    </edge>
    <edge id=":antrim_49" function="internal">
        <lane id=":antrim_49_0" index="0" speed="10.00" length="40.97" shape="2266.83,3457.71 2275.71,3471.92 2280.89,3482.75 2282.37,3490.19 2280.15,3494.25"/>
    </edge>
    <edge id=":antrim_50" function="internal">
        <lane id=":antrim_50_0" index="0" speed="9.11" length="32.33" shape="2266.83,3457.71 2270.61,3466.65 2270.67,3475.14 2266.97,3480.66 2259.48,3480.69"/>
    </edge>
    <edge id=":antrim_51" function="internal">
        <lane id=":antrim_51_0" index="0" speed="8.29" length="27.92" shape="2266.83,3457.71 2269.89,3465.50 2269.61,3472.98 2266.23,3477.69 2259.99,3477.15"/>
    </edge>
    <edge id=":antrim_52" function="internal">
        <lane id=":antrim_52_0" index="0" speed="5.61" length="13.13" shape="2266.83,3457.71 2267.24,3460.91 2265.90,3464.74 2263.65,3467.50 2261.37,3467.50"/>
    </edge>
    <edge id=":antrim_53" function="internal">
        <lane id=":antrim_53_0" index="0" speed="2.95" length="2.21" shape="2266.83,3457.71 2266.91,3458.38 2266.75,3458.77 2266.33,3458.87 2265.68,3458.68"/>
    </edge>
    <edge id=":antrim_54" function="internal">
        <lane id=":antrim_54_0" index="0" speed="9.43" length="42.38" shape="2267.15,3457.44 2257.18,3445.35 2253.20,3441.88 2255.21,3447.02 2263.20,3460.78"/>
    </edge>
    <edge id=":antrim_55" function="internal">
        <lane id=":antrim_55_0" index="0" speed="5.35" length="11.51" shape="2267.15,3457.44 2264.49,3454.37 2263.21,3453.68 2263.33,3455.35 2264.84,3459.40"/>
    </edge>
    <edge id=":antrim_56" function="internal">
        <lane id=":antrim_56_0" index="0" speed="5.94" length="14.63" shape="2267.15,3457.44 2270.54,3461.32 2272.17,3462.19 2272.04,3460.04 2270.17,3454.89"/>
    </edge>
    <edge id=":antrim_57" function="internal">
        <lane id=":antrim_57_0" index="0" speed="9.05" length="32.65" shape="2267.15,3457.44 2273.96,3464.36 2278.34,3464.88 2280.31,3458.99 2279.86,3446.69"/>
    </edge>
    <edge id=":antrim_58" function="internal">
        <lane id=":antrim_58_0" index="0" speed="9.57" length="35.78" shape="2267.15,3457.44 2274.38,3464.58 2279.31,3464.83 2281.94,3458.18 2282.28,3444.65"/>
    </edge>
    <edge id=":antrim_59" function="internal">
        <lane id=":antrim_59_0" index="0" speed="10.00" length="38.44" shape="2264.71,3459.50 2269.85,3467.64 2275.58,3478.86 2279.73,3489.09 2280.15,3494.25"/>
    </edge>
    <edge id=":antrim_60" function="internal">
        <lane id=":antrim_60_0" index="0" speed="7.97" length="25.16" shape="2264.71,3459.50 2266.75,3465.58 2266.34,3473.20 2263.80,3479.26 2259.48,3480.69"/>
    </edge>
    <edge id=":antrim_61" function="internal">
        <lane id=":antrim_61_0" index="0" speed="7.19" length="21.15" shape="2264.71,3459.50 2266.32,3464.67 2265.78,3471.18 2263.53,3476.25 2259.99,3477.15"/>
    </edge>
    <edge id=":antrim_62" function="internal">
        <lane id=":antrim_62_0" index="0" speed="4.97" length="10.13" shape="2264.71,3459.50 2265.23,3461.99 2264.49,3465.10 2263.02,3467.41 2261.37,3467.50"/>
    </edge>
    <edge id=":antrim_63" function="internal">
        <lane id=":antrim_63_0" index="0" speed="7.38" length="24.79" shape="2266.16,3458.27 2260.07,3451.48 2257.55,3449.64 2258.59,3452.74 2263.20,3460.78"/>
    </edge>
    <edge id=":antrim_64" function="internal">
        <lane id=":antrim_64_0" index="0" speed="4.13" length="5.91" shape="2266.16,3458.27 2264.74,3456.77 2264.05,3456.46 2264.08,3457.33 2264.84,3459.40"/>
    </edge>
    <edge id=":antrim_65" function="internal">
        <lane id=":antrim_65_0" index="0" speed="6.46" length="17.45" shape="2266.16,3458.27 2270.36,3462.70 2272.42,3463.61 2272.36,3461.00 2270.17,3454.89"/>
    </edge>
    <edge id=":antrim_66" function="internal">
        <lane id=":antrim_66_0" index="0" speed="9.26" length="33.78" shape="2266.16,3458.27 2273.43,3465.08 2278.13,3465.42 2280.28,3459.29 2279.86,3446.69"/>
    </edge>
    <edge id=":antrim_67" function="internal">
        <lane id=":antrim_67_0" index="0" speed="9.77" length="36.83" shape="2266.16,3458.27 2273.83,3465.25 2279.08,3465.31 2281.89,3458.44 2282.28,3444.65"/>
    </edge>
    <edge id=":antrim_68" function="internal">
        <lane id=":antrim_68_0" index="0" speed="10.00" length="40.19" shape="2263.72,3460.34 2272.98,3471.80 2279.62,3481.77 2282.41,3489.50 2280.15,3494.25"/>
    </edge>
    <edge id=":antrim_69" function="internal">
        <lane id=":antrim_69_0" index="0" speed="7.74" length="24.00" shape="2263.72,3460.34 2265.86,3466.09 2265.71,3473.41 2263.51,3479.28 2259.48,3480.69"/>
    </edge>
    <edge id=":antrim_70" function="internal">
        <lane id=":antrim_70_0" index="0" speed="6.95" length="19.95" shape="2263.72,3460.34 2265.42,3465.18 2265.15,3471.38 2263.24,3476.26 2259.99,3477.15"/>
    </edge>
    <edge id=":antrim_71" function="internal">
        <lane id=":antrim_71_0" index="0" speed="4.67" length="8.80" shape="2263.72,3460.34 2264.29,3462.51 2263.83,3465.29 2262.73,3467.39 2261.37,3467.50"/>
    </edge>
    <edge id=":antrim_72" function="internal">
        <lane id=":antrim_72_0" index="0" speed="5.27" length="11.12" shape="2261.93,3463.60 2264.72,3466.03 2265.86,3466.37 2265.36,3464.62 2263.20,3460.78"/>
    </edge>
    <edge id=":antrim_73" function="internal">
        <lane id=":antrim_73_0" index="0" speed="5.74" length="12.84" shape="2261.93,3463.60 2265.06,3466.18 2266.59,3466.34 2266.52,3464.08 2264.84,3459.40"/>
    </edge>
    <edge id=":antrim_74" function="internal">
        <lane id=":antrim_74_0" index="0" speed="8.57" length="30.97" shape="2261.93,3463.60 2269.82,3470.16 2273.82,3470.89 2273.94,3465.80 2270.17,3454.89"/>
    </edge>
    <edge id=":antrim_75" function="internal">
        <lane id=":antrim_75_0" index="0" speed="10.00" length="41.55" shape="2261.93,3463.60 2271.30,3470.49 2277.42,3469.97 2280.27,3462.04 2279.86,3446.69"/>
    </edge>
    <edge id=":antrim_76" function="internal">
        <lane id=":antrim_76_0" index="0" speed="10.00" length="44.15" shape="2261.93,3463.60 2271.56,3470.46 2278.16,3469.59 2281.73,3460.98 2282.28,3444.65"/>
    </edge>
    <edge id=":antrim_77" function="internal">
        <lane id=":antrim_77_0" index="0" speed="10.00" length="38.45" shape="2261.93,3463.60 2271.79,3473.61 2279.04,3482.54 2282.29,3489.66 2280.15,3494.25"/>
    </edge>
    <edge id=":antrim_78" function="internal">
        <lane id=":antrim_78_0" index="0" speed="7.53" length="23.55" shape="2261.93,3463.60 2265.72,3469.55 2266.66,3475.91 2264.62,3480.38 2259.48,3480.69"/>
    </edge>
    <edge id=":antrim_79" function="internal">
        <lane id=":antrim_79_0" index="0" speed="6.65" length="18.81" shape="2261.93,3463.60 2264.88,3468.44 2265.54,3473.68 2263.90,3477.26 2259.99,3477.15"/>
    </edge>
    <edge id=":antrim_80" function="internal">
        <lane id=":antrim_80_0" index="0" speed="3.92" length="5.76" shape="2261.93,3463.60 2263.25,3464.78 2263.60,3465.83 2262.97,3466.73 2261.37,3467.50"/>
    </edge>
    <edge id=":antrim_81" function="internal">
        <lane id=":antrim_81_0" index="0" speed="2.68" length="1.41" shape="2261.35,3467.67 2261.75,3467.97 2261.89,3468.05 2261.76,3467.89 2261.37,3467.50"/>
    </edge>
    <edge id=":antrim_82" function="internal">
        <lane id=":antrim_82_0" index="0" speed="6.59" length="17.86" shape="2261.35,3467.67 2265.80,3470.63 2267.59,3470.47 2266.73,3467.19 2263.20,3460.78"/>
    </edge>
    <edge id=":antrim_83" function="internal">
        <lane id=":antrim_83_0" index="0" speed="7.89" length="24.96" shape="2261.35,3467.67 2267.57,3471.60 2270.66,3471.17 2270.60,3466.38 2267.40,3457.23"/>
    </edge>
    <edge id=":antrim_84" function="internal">
        <lane id=":antrim_84_0" index="0" speed="8.96" length="32.60" shape="2261.35,3467.67 2269.72,3472.99 2273.98,3472.64 2274.13,3466.60 2270.17,3454.89"/>
    </edge>
    <edge id=":antrim_85" function="internal">
        <lane id=":antrim_85_0" index="0" speed="10.00" length="42.66" shape="2261.35,3467.67 2271.00,3473.01 2277.31,3471.29 2280.26,3462.52 2279.86,3446.69"/>
    </edge>
    <edge id=":antrim_86" function="internal">
        <lane id=":antrim_86_0" index="0" speed="10.00" length="45.24" shape="2261.35,3467.67 2271.24,3472.95 2278.02,3470.87 2281.71,3461.44 2282.28,3444.65"/>
    </edge>
    <edge id=":antrim_87" function="internal">
        <lane id=":antrim_87_0" index="0" speed="10.00" length="33.30" shape="2261.35,3467.67 2267.74,3473.84 2274.71,3482.24 2279.70,3489.99 2280.15,3494.25"/>
    </edge>
    <edge id=":antrim_88" function="internal">
        <lane id=":antrim_88_0" index="0" speed="6.09" length="15.34" shape="2261.35,3467.67 2263.09,3471.06 2263.24,3475.77 2261.99,3479.69 2259.48,3480.69"/>
    </edge>
    <edge id=":antrim_89" function="internal">
        <lane id=":antrim_89_0" index="0" speed="5.73" length="13.98" shape="2261.35,3467.67 2264.56,3470.55 2265.40,3473.09 2263.88,3475.29 2259.99,3477.15"/>
    </edge>
    <edge id=":antrim_90" function="internal">
        <lane id=":antrim_90_0" index="0" speed="4.86" length="9.47" shape="2259.25,3482.31 2262.66,3482.85 2263.83,3482.76 2262.77,3482.04 2259.48,3480.69"/>
    </edge>
    <edge id=":antrim_91" function="internal">
        <lane id=":antrim_91_0" index="0" speed="4.22" length="6.31" shape="2259.25,3482.31 2261.42,3482.60 2262.19,3482.40 2261.55,3481.70 2259.51,3480.51"/>
    </edge>
    <edge id=":antrim_92" function="internal">
        <lane id=":antrim_92_0" index="0" speed="8.52" length="28.52" shape="2259.25,3482.31 2267.55,3482.93 2270.67,3480.67 2268.61,3475.52 2261.37,3467.50"/>
    </edge>
    <edge id=":antrim_93" function="internal">
        <lane id=":antrim_93_0" index="0" speed="9.46" length="31.64" shape="2259.25,3482.31 2266.73,3482.33 2269.88,3478.75 2268.70,3471.56 2263.20,3460.78"/>
    </edge>
    <edge id=":antrim_94" function="internal">
        <lane id=":antrim_94_0" index="0" speed="10.00" length="35.38" shape="2259.25,3482.31 2267.39,3482.18 2271.46,3477.96 2271.46,3469.65 2267.40,3457.23"/>
    </edge>
    <edge id=":antrim_95" function="internal">
        <lane id=":antrim_95_0" index="0" speed="10.00" length="40.07" shape="2259.25,3482.31 2268.98,3482.31 2274.05,3477.74 2274.44,3468.60 2270.17,3454.89"/>
    </edge>
    <edge id=":antrim_96" function="internal">
        <lane id=":antrim_96_0" index="0" speed="10.00" length="49.45" shape="2259.25,3482.31 2269.89,3481.85 2276.87,3475.76 2280.19,3464.04 2279.86,3446.69"/>
    </edge>
    <edge id=":antrim_97" function="internal">
        <lane id=":antrim_97_0" index="0" speed="10.00" length="52.00" shape="2259.25,3482.31 2270.08,3481.73 2277.53,3475.26 2281.60,3462.90 2282.28,3444.65"/>
    </edge>
    <edge id=":antrim_98" function="internal">
        <lane id=":antrim_98_0" index="0" speed="8.85" length="29.15" shape="2259.25,3482.31 2269.27,3484.52 2277.87,3487.33 2282.37,3490.62 2280.15,3494.25"/>
    </edge>
    <edge id=":antrim_99" function="internal">
        <lane id=":antrim_99_0" index="0" speed="8.24" length="23.00" shape="2278.54,3491.48 2278.75,3489.99 2275.65,3487.70 2269.22,3484.59 2259.48,3480.69"/>
    </edge>
    <edge id=":antrim_100" function="internal">
        <lane id=":antrim_100_0" index="0" speed="8.32" length="22.03" shape="2278.54,3491.48 2277.68,3490.60 2274.22,3488.48 2268.16,3485.12 2259.51,3480.51"/>
    </edge>
    <edge id=":antrim_101" function="internal">
        <lane id=":antrim_101_0" index="0" speed="10.00" length="30.74" shape="2278.54,3491.48 2279.27,3488.93 2276.66,3484.09 2270.69,3476.94 2261.37,3467.50"/>
    </edge>
    <edge id=":antrim_102" function="internal">
        <lane id=":antrim_102_0" index="0" speed="10.00" length="36.31" shape="2278.54,3491.48 2279.70,3488.29 2277.95,3481.76 2273.27,3471.89 2265.68,3458.68"/>
    </edge>
    <edge id=":antrim_103" function="internal">
        <lane id=":antrim_103_0" index="0" speed="10.00" length="36.32" shape="2278.54,3491.48 2278.84,3488.76 2277.08,3482.15 2273.27,3471.64 2267.40,3457.23"/>
    </edge>
    <edge id=":antrim_104" function="internal">
        <lane id=":antrim_104_0" index="0" speed="10.00" length="38.51" shape="2278.54,3491.48 2280.06,3488.01 2279.17,3480.75 2275.87,3469.71 2270.17,3454.89"/>
    </edge>
    <edge id=":antrim_105" function="internal">
        <lane id=":antrim_105_0" index="0" speed="10.00" length="45.50" shape="2278.54,3491.48 2280.78,3487.43 2281.75,3478.61 2281.44,3465.03 2279.86,3446.69"/>
    </edge>
    <edge id=":antrim_106" function="internal">
        <lane id=":antrim_106_0" index="0" speed="10.00" length="47.61" shape="2278.54,3491.48 2280.95,3487.29 2282.38,3478.08 2282.83,3463.87 2282.28,3444.65"/>
    </edge>
    <edge id=":antrim_107" function="internal">
        <lane id=":antrim_107_0" index="0" speed="3.65" length="4.67" shape="2278.54,3491.48 2279.98,3491.57 2280.73,3492.06 2280.78,3492.96 2280.15,3494.25"/>
    </edge>
    <edge id=":athlone_0" function="internal">
        <lane id=":athlone_0_0" index="0" speed="7.80" length="26.95" shape="1255.81,1989.96 1255.05,1984.72 1253.57,1985.45 1251.37,1992.13 1248.46,2004.77"/>
    </edge>
    <edge id=":athlone_1" function="internal">
        <lane id=":athlone_1_0" index="0" speed="8.82" length="32.93" shape="1255.81,1989.96 1254.54,1982.81 1251.75,1982.60 1247.46,1989.34 1241.66,2003.04"/>
    </edge>
    <edge id=":athlone_2" function="internal">
        <lane id=":athlone_2_0" index="0" speed="10.00" length="41.07" shape="1255.81,1989.96 1253.49,1979.29 1247.83,1973.71 1238.82,1973.20 1226.47,1977.78"/>
    </edge>
    <edge id=":athlone_3" function="internal">
        <lane id=":athlone_3_0" index="0" speed="10.00" length="34.66" shape="1255.81,1989.96 1254.55,1977.64 1252.13,1968.42 1248.55,1962.28 1243.80,1959.24"/>
    </edge>
    <edge id=":athlone_4" function="internal">
        <lane id=":athlone_4_0" index="0" speed="10.00" length="70.22" shape="1255.81,1989.96 1256.03,1977.59 1256.80,1954.87 1257.70,1932.16 1258.33,1919.79"/>
    </edge>
    <edge id=":athlone_5" function="internal">
        <lane id=":athlone_5_0" index="0" speed="10.00" length="69.05" shape="1255.81,1989.96 1257.22,1978.58 1260.82,1957.71 1265.11,1936.01 1268.60,1922.16"/>
    </edge>
    <edge id=":athlone_6" function="internal">
        <lane id=":athlone_6_0" index="0" speed="10.00" length="47.01" shape="1255.81,1989.96 1256.27,1976.17 1259.09,1964.55 1264.28,1955.11 1271.84,1947.85"/>
    </edge>
    <edge id=":athlone_7" function="internal">
        <lane id=":athlone_7_0" index="0" speed="10.00" length="42.37" shape="1255.81,1989.96 1256.44,1976.51 1259.81,1966.51 1265.93,1959.95 1274.78,1956.85"/>
    </edge>
    <edge id=":athlone_8" function="internal">
        <lane id=":athlone_8_0" index="0" speed="10.00" length="34.11" shape="1255.81,1989.96 1257.40,1981.94 1261.97,1973.12 1268.22,1966.43 1274.86,1964.79"/>
    </edge>
    <edge id=":athlone_9" function="internal">
        <lane id=":athlone_9_0" index="0" speed="9.27" length="33.90" shape="1255.81,1989.96 1258.28,1982.76 1265.01,1981.44 1273.44,1984.85 1281.02,1991.87"/>
    </edge>
    <edge id=":athlone_10" function="internal">
        <lane id=":athlone_10_0" index="0" speed="8.29" length="27.28" shape="1255.81,1989.96 1258.70,1986.15 1265.78,1985.95 1273.75,1988.46 1279.34,1992.77"/>
    </edge>
    <edge id=":athlone_11" function="internal">
        <lane id=":athlone_11_0" index="0" speed="6.34" length="17.31" shape="1255.81,1989.96 1257.45,1988.52 1261.39,1990.62 1265.64,1994.58 1268.18,1998.71"/>
    </edge>
    <edge id=":athlone_12" function="internal">
        <lane id=":athlone_12_0" index="0" speed="5.88" length="15.07" shape="1255.81,1989.96 1257.01,1989.01 1259.93,1991.59 1263.03,1995.83 1264.81,1999.85"/>
    </edge>
    <edge id=":athlone_13" function="internal">
        <lane id=":athlone_13_0" index="0" speed="9.20" length="36.42" shape="1261.51,2000.46 1258.58,1989.07 1255.43,1985.98 1252.06,1991.22 1248.46,2004.77"/>
    </edge>
    <edge id=":athlone_14" function="internal">
        <lane id=":athlone_14_0" index="0" speed="10.00" length="41.23" shape="1261.51,2000.46 1257.99,1988.05 1253.51,1984.34 1248.07,1989.34 1241.66,2003.04"/>
    </edge>
    <edge id=":athlone_15" function="internal">
        <lane id=":athlone_15_0" index="0" speed="10.00" length="51.42" shape="1261.51,2000.46 1256.80,1985.15 1249.40,1976.26 1239.29,1973.80 1226.47,1977.78"/>
    </edge>
    <edge id=":athlone_16" function="internal">
        <lane id=":athlone_16_0" index="0" speed="10.00" length="46.19" shape="1261.51,2000.46 1257.81,1983.56 1253.63,1971.06 1248.96,1962.95 1243.80,1959.24"/>
    </edge>
    <edge id=":athlone_17" function="internal">
        <lane id=":athlone_17_0" index="0" speed="10.00" length="80.74" shape="1261.51,2000.46 1260.57,1986.48 1259.41,1960.15 1258.50,1933.81 1258.33,1919.79"/>
    </edge>
    <edge id=":athlone_18" function="internal">
        <lane id=":athlone_18_0" index="0" speed="10.00" length="78.72" shape="1261.51,2000.46 1261.75,1987.47 1263.43,1962.98 1265.91,1937.66 1268.60,1922.16"/>
    </edge>
    <edge id=":athlone_19" function="internal">
        <lane id=":athlone_19_0" index="0" speed="10.00" length="56.30" shape="1261.51,2000.46 1259.43,1982.11 1260.46,1967.22 1264.60,1955.80 1271.84,1947.85"/>
    </edge>
    <edge id=":athlone_20" function="internal">
        <lane id=":athlone_20_0" index="0" speed="10.00" length="46.53" shape="1261.51,2000.46 1262.06,1990.07 1265.29,1975.68 1269.94,1962.78 1274.78,1956.85"/>
    </edge>
    <edge id=":athlone_21" function="internal">
        <lane id=":athlone_21_0" index="0" speed="10.00" length="39.97" shape="1261.51,2000.46 1261.90,1990.90 1264.85,1978.55 1269.47,1968.24 1274.86,1964.79"/>
    </edge>
    <edge id=":athlone_22" function="internal">
        <lane id=":athlone_22_0" index="0" speed="7.80" length="24.84" shape="1261.51,2000.46 1263.42,1995.37 1269.19,1991.41 1276.00,1989.83 1281.02,1991.87"/>
    </edge>
    <edge id=":athlone_23" function="internal">
        <lane id=":athlone_23_0" index="0" speed="7.42" length="22.69" shape="1261.51,2000.46 1263.30,1995.82 1268.64,1992.21 1274.87,1990.81 1279.34,1992.77"/>
    </edge>
    <edge id=":athlone_24" function="internal">
        <lane id=":athlone_24_0" index="0" speed="3.29" length="3.36" shape="1261.51,2000.46 1264.81,1999.85"/>
    </edge>
    <edge id=":athlone_25" function="internal">