<?xml version="1.0" encoding="UTF-8"?>

<!-- generated on 2025-02-19 12:47:39 by Eclipse SUMO netconvert Version 1.18.0
<configuration xmlns:xsi="http://www.w3.org/2001/XMLSchema-instance" xsi:noNamespaceSchemaLocation="http://sumo.dlr.de/xsd/netconvertConfiguration.xsd">

    <input>
        <node-files value="nod.xml"/>
        <edge-files value="edge_xmls/07799.xml"/>
    </input>

    <output>
        <output-file value="networks/07799.net.xml"/>
    </output>

</configuration>
-->

<net version="1.16" junctionCornerDetail="5" limitTurnSpeed="5.50" xmlns:xsi="http://www.w3.org/2001/XMLSchema-instance" xsi:noNamespaceSchemaLocation="http://sumo.dlr.de/xsd/net_file.xsd">

    <location netOffset="-682.00,4368.00" convBoundary="0.00,0.00,2498.00,3881.00" origBoundary="682.00,-4368.00,3180.00,-487.00" projParameter="!"/>

    <edge id=":antrim_0" function="internal">
        <lane id=":antrim_0_0" index="0" speed="10.00" length="19.83" shape="2300.33,3482.16 2283.34,3492.39"/>
    </edge>
    <edge id=":antrim_1" function="internal">
        <lane id=":antrim_1_0" index="0" speed="10.00" length="55.81" shape="2300.33,3482.16 2291.92,3483.97 2281.28,3480.55 2268.41,3471.89 2253.31,3457.99"/>
    </edge>
    <edge id=":antrim_2" function="internal">
        <lane id=":antrim_2_0" index="0" speed="10.00" length="55.53" shape="2300.33,3482.16 2292.07,3483.76 2281.99,3479.63 2270.10,3469.76 2256.39,3454.15"/>
    </edge>
    <edge id=":antrim_3" function="internal">
        <lane id=":antrim_3_0" index="0" speed="10.00" length="55.05" shape="2300.33,3482.16 2292.19,3483.64 2282.60,3479.08 2271.54,3468.47 2259.01,3451.83"/>
    </edge>
    <edge id=":antrim_4" function="internal">
        <lane id=":antrim_4_0" index="0" speed="10.00" length="54.56" shape="2300.33,3482.16 2292.28,3483.58 2283.01,3478.81 2272.52,3467.84 2260.80,3450.67"/>
    </edge>
    <edge id=":antrim_5" function="internal">
        <lane id=":antrim_5_0" index="0" speed="10.00" length="53.88" shape="2300.33,3482.16 2291.27,3483.33 2282.88,3476.55 2275.00,3463.63 2267.46,3446.37"/>
    </edge>
    <edge id=":antrim_6" function="internal">
        <lane id=":antrim_6_0" index="0" speed="10.00" length="48.81" shape="2300.33,3482.16 2294.24,3478.55 2284.77,3467.46 2275.59,3454.31 2270.39,3444.48"/>
    </edge>
    <edge id=":antrim_7" function="internal">
        <lane id=":antrim_7_0" index="0" speed="10.00" length="54.09" shape="2300.33,3482.16 2291.73,3482.70 2285.06,3474.26 2279.98,3459.43 2276.12,3440.78"/>
    </edge>
    <edge id=":antrim_8" function="internal">
        <lane id=":antrim_8_0" index="0" speed="10.00" length="54.59" shape="2300.33,3482.16 2291.90,3482.49 2285.86,3473.49 2281.73,3458.02 2279.03,3438.91"/>
    </edge>
    <edge id=":antrim_9" function="internal">
        <lane id=":antrim_9_0" index="0" speed="10.00" length="58.14" shape="2288.77,3434.80 2287.98,3459.07 2286.82,3476.76 2285.27,3487.87 2283.34,3492.39"/>
    </edge>
    <edge id=":antrim_10" function="internal">
        <lane id=":antrim_10_0" index="0" speed="10.00" length="55.81" shape="2288.77,3434.80 2285.33,3450.71 2277.03,3461.52 2265.74,3464.76 2253.31,3457.99"/>
    </edge>
    <edge id=":antrim_11" function="internal">
        <lane id=":antrim_11_0" index="0" speed="10.00" length="50.29" shape="2288.77,3434.80 2285.35,3448.97 2277.29,3458.49 2266.87,3461.01 2256.39,3454.15"/>
    </edge>
    <edge id=":antrim_12" function="internal">
        <lane id=":antrim_12_0" index="0" speed="10.00" length="46.07" shape="2288.77,3434.80 2285.44,3447.71 2277.73,3456.38 2268.09,3458.51 2259.01,3451.83"/>
    </edge>
    <edge id=":antrim_13" function="internal">
        <lane id=":antrim_13_0" index="0" speed="9.47" length="35.80" shape="2288.77,3434.80 2284.97,3442.10 2276.45,3448.92 2267.09,3452.65 2260.80,3450.67"/>
    </edge>
    <edge id=":antrim_14" function="internal">
        <lane id=":antrim_14_0" index="0" speed="8.83" length="33.21" shape="2288.77,3434.80 2286.01,3444.05 2279.86,3450.34 2272.84,3451.75 2267.46,3446.37"/>
    </edge>
    <edge id=":antrim_15" function="internal">
        <lane id=":antrim_15_0" index="0" speed="7.52" length="24.23" shape="2288.77,3434.80 2286.12,3440.16 2280.30,3444.72 2274.11,3446.73 2270.39,3444.48"/>
    </edge>
    <edge id=":antrim_16" function="internal">
        <lane id=":antrim_16_0" index="0" speed="6.65" length="19.44" shape="2288.77,3434.80 2286.91,3440.09 2282.87,3443.58 2278.63,3444.17 2276.12,3440.78"/>
    </edge>
    <edge id=":antrim_17" function="internal">
        <lane id=":antrim_17_0" index="0" speed="5.94" length="15.43" shape="2288.77,3434.80 2287.87,3439.48 2285.95,3441.72 2283.01,3441.53 2279.03,3438.91"/>
    </edge>
    <edge id=":antrim_18" function="internal">
        <lane id=":antrim_18_0" index="0" speed="10.00" length="54.53" shape="2279.82,3438.40 2283.01,3461.06 2284.66,3477.62 2284.78,3488.06 2283.34,3492.39"/>
    </edge>
    <edge id=":antrim_19" function="internal">
        <lane id=":antrim_19_0" index="0" speed="10.00" length="44.30" shape="2279.82,3438.40 2278.66,3450.93 2272.42,3459.88 2263.26,3462.98 2253.31,3457.99"/>
    </edge>
    <edge id=":antrim_20" function="internal">
        <lane id=":antrim_20_0" index="0" speed="9.68" length="38.35" shape="2279.82,3438.40 2278.53,3449.13 2272.65,3456.70 2264.49,3459.06 2256.39,3454.15"/>
    </edge>
    <edge id=":antrim_21" function="internal">
        <lane id=":antrim_21_0" index="0" speed="8.99" length="33.88" shape="2279.82,3438.40 2278.53,3447.84 2273.08,3454.49 2265.80,3456.45 2259.01,3451.83"/>
    </edge>
    <edge id=":antrim_22" function="internal">
        <lane id=":antrim_22_0" index="0" speed="7.93" length="26.40" shape="2279.82,3438.40 2277.88,3444.37 2272.21,3449.75 2265.59,3452.52 2260.80,3450.67"/>
    </edge>
    <edge id=":antrim_23" function="internal">
        <lane id=":antrim_23_0" index="0" speed="6.83" length="20.43" shape="2279.82,3438.40 2278.83,3444.12 2275.23,3448.26 2270.83,3449.47 2267.46,3446.37"/>
    </edge>
    <edge id=":antrim_24" function="internal">
        <lane id=":antrim_24_0" index="0" speed="5.56" length="13.17" shape="2279.82,3438.40 2278.74,3441.41 2275.74,3444.17 2272.42,3445.56 2270.39,3444.48"/>
    </edge>
    <edge id=":antrim_25" function="internal">
        <lane id=":antrim_25_0" index="0" speed="6.31" length="18.24" shape="2279.82,3438.40 2278.74,3431.76 2278.25,3429.63 2278.34,3432.01 2279.03,3438.91"/>
    </edge>
    <edge id=":antrim_26" function="internal">
        <lane id=":antrim_26_0" index="0" speed="4.09" length="6.42" shape="2279.82,3438.40 2279.79,3440.38 2279.16,3441.44 2277.94,3441.57 2276.12,3440.78"/>
    </edge>
    <edge id=":antrim_27" function="internal">
        <lane id=":antrim_27_0" index="0" speed="7.38" length="24.97" shape="2273.18,3442.68 2276.07,3451.21 2277.52,3453.73 2277.54,3450.26 2276.12,3440.78"/>
    </edge>
    <edge id=":antrim_28" function="internal">
        <lane id=":antrim_28_0" index="0" speed="8.58" length="33.76" shape="2273.18,3442.68 2277.11,3453.83 2279.39,3456.92 2280.03,3451.95 2279.03,3438.91"/>
    </edge>
    <edge id=":antrim_29" function="internal">
        <lane id=":antrim_29_0" index="0" speed="10.00" length="51.29" shape="2273.18,3442.68 2279.34,3463.44 2283.09,3478.64 2284.42,3488.29 2283.34,3492.39"/>
    </edge>
    <edge id=":antrim_30" function="internal">
        <lane id=":antrim_30_0" index="0" speed="9.09" length="34.25" shape="2273.18,3442.68 2273.21,3452.08 2268.47,3459.05 2261.12,3461.66 2253.31,3457.99"/>
    </edge>
    <edge id=":antrim_31" function="internal">
        <lane id=":antrim_31_0" index="0" speed="8.11" length="28.04" shape="2273.18,3442.68 2272.97,3450.27 2268.68,3455.78 2262.45,3457.61 2256.39,3454.15"/>
    </edge>
    <edge id=":antrim_32" function="internal">
        <lane id=":antrim_32_0" index="0" speed="7.36" length="23.41" shape="2273.18,3442.68 2272.88,3448.98 2269.11,3453.52 2263.83,3454.93 2259.01,3451.83"/>
    </edge>
    <edge id=":antrim_33" function="internal">
        <lane id=":antrim_33_0" index="0" speed="6.37" length="17.33" shape="2273.18,3442.68 2272.22,3446.50 2268.50,3450.01 2264.02,3451.85 2260.80,3450.67"/>
    </edge>
    <edge id=":antrim_34" function="internal">
        <lane id=":antrim_34_0" index="0" speed="4.81" length="9.58" shape="2273.18,3442.68 2272.96,3445.28 2271.27,3447.20 2269.10,3447.79 2267.46,3446.37"/>
    </edge>
    <edge id=":antrim_35" function="internal">
        <lane id=":antrim_35_0" index="0" speed="3.70" length="4.85" shape="2273.18,3442.68 2273.16,3444.18 2272.69,3444.98 2271.76,3445.08 2270.39,3444.48"/>
    </edge>
    <edge id=":antrim_36" function="internal">
        <lane id=":antrim_36_0" index="0" speed="5.60" length="13.65" shape="2269.27,3445.21 2271.30,3449.80 2272.16,3451.22 2271.86,3449.44 2270.39,3444.48"/>
    </edge>
    <edge id=":antrim_37" function="internal">
        <lane id=":antrim_37_0" index="0" speed="8.79" length="35.08" shape="2269.27,3445.21 2274.50,3456.32 2277.39,3459.29 2277.93,3454.11 2276.12,3440.78"/>
    </edge>
    <edge id=":antrim_38" function="internal">
        <lane id=":antrim_38_0" index="0" speed="9.40" length="39.51" shape="2269.27,3445.21 2275.12,3457.25 2278.70,3460.21 2280.00,3454.10 2279.03,3438.91"/>
    </edge>
    <edge id=":antrim_39" function="internal">
        <lane id=":antrim_39_0" index="0" speed="10.00" length="49.88" shape="2269.27,3445.21 2277.18,3464.83 2282.16,3479.24 2284.22,3488.42 2283.34,3492.39"/>
    </edge>
    <edge id=":antrim_40" function="internal">
        <lane id=":antrim_40_0" index="0" speed="7.55" length="23.92" shape="2269.27,3445.21 2268.57,3450.54 2264.08,3455.78 2258.19,3458.93 2253.31,3457.99"/>
    </edge>
    <edge id=":antrim_41" function="internal">
        <lane id=":antrim_41_0" index="0" speed="6.58" length="18.43" shape="2269.27,3445.21 2268.57,3449.21 2264.81,3453.02 2260.06,3455.16 2256.39,3454.15"/>
    </edge>
    <edge id=":antrim_42" function="internal">
        <lane id=":antrim_42_0" index="0" speed="5.82" length="14.40" shape="2269.27,3445.21 2268.66,3448.30 2265.59,3451.19 2261.80,3452.74 2259.01,3451.83"/>
    </edge>
    <edge id=":antrim_43" function="internal">
        <lane id=":antrim_43_0" index="0" speed="5.33" length="11.91" shape="2269.27,3445.21 2268.74,3447.77 2266.18,3450.18 2263.04,3451.46 2260.80,3450.67"/>
    </edge>
    <edge id=":antrim_44" function="internal">
        <lane id=":antrim_44_0" index="0" speed="3.23" length="3.15" shape="2269.27,3445.21 2269.26,3446.18 2268.95,3446.69 2268.35,3446.76 2267.46,3446.37"/>
    </edge>
    <edge id=":antrim_45" function="internal">
        <lane id=":antrim_45_0" index="0" speed="7.82" length="27.94" shape="2263.49,3448.94 2269.05,3457.51 2271.57,3459.93 2271.04,3456.22 2267.46,3446.37"/>
    </edge>
    <edge id=":antrim_46" function="internal">
        <lane id=":antrim_46_0" index="0" speed="8.74" length="34.48" shape="2263.49,3448.94 2270.32,3459.18 2273.75,3461.85 2273.78,3456.95 2270.39,3444.48"/>
    </edge>
    <edge id=":antrim_47" function="internal">
        <lane id=":antrim_47_0" index="0" speed="9.82" length="41.92" shape="2263.49,3448.94 2271.60,3460.45 2276.41,3462.93 2277.92,3456.38 2276.12,3440.78"/>
    </edge>
    <edge id=":antrim_48" function="internal">
        <lane id=":antrim_48_0" index="0" speed="10.00" length="44.91" shape="2263.49,3448.94 2272.02,3460.73 2277.45,3462.99 2279.79,3455.72 2279.03,3438.91"/>
    </edge>
    <edge id=":antrim_49" function="internal">
        <lane id=":antrim_49_0" index="0" speed="10.00" length="48.56" shape="2263.49,3448.94 2274.00,3466.89 2280.82,3480.11 2283.93,3488.62 2283.34,3492.39"/>
    </edge>
    <edge id=":antrim_50" function="internal">
        <lane id=":antrim_50_0" index="0" speed="6.62" length="19.01" shape="2263.49,3448.94 2264.30,3453.84 2261.86,3457.91 2257.69,3459.76 2253.31,3457.99"/>
    </edge>
    <edge id=":antrim_51" function="internal">
        <lane id=":antrim_51_0" index="0" speed="5.40" length="12.39" shape="2263.49,3448.94 2263.88,3452.05 2262.03,3454.55 2259.14,3455.54 2256.39,3454.15"/>
    </edge>
    <edge id=":antrim_52" function="internal">
        <lane id=":antrim_52_0" index="0" speed="3.84" length="5.33" shape="2263.49,3448.94 2259.01,3451.83"/>
    </edge>
    <edge id=":antrim_53" function="internal">
        <lane id=":antrim_53_0" index="0" speed="3.65" length="4.67" shape="2263.49,3448.94 2263.47,3450.38 2263.01,3451.15 2262.12,3451.25 2260.80,3450.67"/>
    </edge>
    <edge id=":antrim_54" function="internal">
        <lane id=":antrim_54_0" index="0" speed="3.59" length="4.34" shape="2261.03,3450.52 2260.09,3449.20 2259.73,3448.79 2259.97,3449.28 2260.80,3450.67"/>
    </edge>
    <edge id=":antrim_55" function="internal">
        <lane id=":antrim_55_0" index="0" speed="8.61" length="33.50" shape="2261.03,3450.52 2268.37,3460.18 2271.89,3462.70 2271.59,3458.10 2267.46,3446.37"/>
    </edge>
    <edge id=":antrim_56" function="internal">
        <lane id=":antrim_56_0" index="0" speed="9.24" length="37.88" shape="2261.03,3450.52 2269.25,3461.05 2273.55,3463.56 2273.93,3458.03 2270.39,3444.48"/>
    </edge>
    <edge id=":antrim_57" function="internal">
        <lane id=":antrim_57_0" index="0" speed="10.00" length="44.11" shape="2261.03,3450.52 2270.30,3461.81 2275.90,3463.94 2277.84,3456.94 2276.12,3440.78"/>
    </edge>
    <edge id=":antrim_58" function="internal">
        <lane id=":antrim_58_0" index="0" speed="10.00" length="46.91" shape="2261.03,3450.52 2270.68,3461.97 2276.89,3463.85 2279.67,3456.16 2279.03,3438.91"/>
    </edge>
    <edge id=":antrim_59" function="internal">
        <lane id=":antrim_59_0" index="0" speed="10.00" length="48.29" shape="2261.03,3450.52 2272.66,3467.76 2280.25,3480.48 2283.81,3488.69 2283.34,3492.39"/>
    </edge>
    <edge id=":antrim_60" function="internal">
        <lane id=":antrim_60_0" index="0" speed="5.91" length="15.06" shape="2261.03,3450.52 2261.86,3454.35 2260.02,3457.69 2256.76,3459.31 2253.31,3457.99"/>
    </edge>
    <edge id=":antrim_61" function="internal">
        <lane id=":antrim_61_0" index="0" speed="3.99" length="5.89" shape="2261.03,3450.52 2256.39,3454.15"/>
    </edge>
    <edge id=":antrim_62" function="internal">
        <lane id=":antrim_62_0" index="0" speed="3.34" length="3.51" shape="2261.03,3450.52 2261.02,3451.61 2260.67,3452.18 2260.01,3452.26 2259.01,3451.83"/>
    </edge>
    <edge id=":antrim_63" function="internal">
        <lane id=":antrim_63_0" index="0" speed="4.83" length="9.72" shape="2259.48,3451.52 2257.24,3448.64 2256.42,3447.73 2257.01,3448.79 2259.01,3451.83"/>
    </edge>
    <edge id=":antrim_64" function="internal">
        <lane id=":antrim_64_0" index="0" speed="5.87" length="15.19" shape="2259.48,3451.52 2263.00,3455.98 2264.39,3457.33 2263.66,3455.56 2260.80,3450.67"/>
    </edge>
    <edge id=":antrim_65" function="internal">
        <lane id=":antrim_65_0" index="0" speed="8.96" length="35.93" shape="2259.48,3451.52 2267.77,3461.44 2271.87,3463.89 2271.76,3458.86 2267.46,3446.37"/>
    </edge>
    <edge id=":antrim_66" function="internal">
        <lane id=":antrim_66_0" index="0" speed="9.51" length="39.62" shape="2259.48,3451.52 2268.51,3462.05 2273.34,3464.39 2273.97,3458.53 2270.39,3444.48"/>
    </edge>
    <edge id=":antrim_67" function="internal">
        <lane id=":antrim_67_0" index="0" speed="10.00" length="45.43" shape="2259.48,3451.52 2269.46,3462.60 2275.56,3464.50 2277.78,3457.23 2276.12,3440.78"/>
    </edge>
    <edge id=":antrim_68" function="internal">
        <lane id=":antrim_68_0" index="0" speed="10.00" length="48.15" shape="2259.48,3451.52 2269.82,3462.71 2276.53,3464.34 2279.60,3456.41 2279.03,3438.91"/>
    </edge>
    <edge id=":antrim_69" function="internal">
        <lane id=":antrim_69_0" index="0" speed="10.00" length="47.41" shape="2259.48,3451.52 2265.68,3460.78 2273.96,3474.30 2280.97,3486.65 2283.34,3492.39"/>
    </edge>
    <edge id=":antrim_70" function="internal">
        <lane id=":antrim_70_0" index="0" speed="5.43" length="12.56" shape="2259.48,3451.52 2260.28,3454.70 2258.83,3457.57 2256.17,3459.03 2253.31,3457.99"/>
    </edge>
    <edge id=":antrim_71" function="internal">
        <lane id=":antrim_71_0" index="0" speed="3.97" length="5.92" shape="2259.48,3451.52 2259.70,3453.34 2259.25,3454.38 2258.15,3454.65 2256.39,3454.15"/>
    </edge>
    <edge id=":antrim_72" function="internal">
        <lane id=":antrim_72_0" index="0" speed="5.97" length="15.76" shape="2255.33,3455.48 2259.47,3459.55 2261.03,3460.68 2260.00,3458.88 2256.39,3454.15"/>
    </edge>
    <edge id=":antrim_73" function="internal">
        <lane id=":antrim_73_0" index="0" speed="7.94" length="28.73" shape="2255.33,3455.48 2262.91,3462.74 2266.05,3464.55 2264.75,3460.91 2259.01,3451.83"/>
    </edge>
    <edge id=":antrim_74" function="internal">
        <lane id=":antrim_74_0" index="0" speed="8.49" length="32.61" shape="2255.33,3455.48 2263.95,3463.61 2267.74,3465.52 2266.69,3461.21 2260.80,3450.67"/>
    </edge>
    <edge id=":antrim_75" function="internal">
        <lane id=":antrim_75_0" index="0" speed="9.76" length="40.98" shape="2255.33,3455.48 2265.95,3464.95 2271.51,3466.59 2272.01,3460.40 2267.46,3446.37"/>
    </edge>
    <edge id=":antrim_76" function="internal">
        <lane id=":antrim_76_0" index="0" speed="10.00" length="43.75" shape="2255.33,3455.48 2266.46,3465.16 2272.68,3466.56 2273.99,3459.67 2270.39,3444.48"/>
    </edge>
    <edge id=":antrim_77" function="internal">
        <lane id=":antrim_77_0" index="0" speed="10.00" length="48.91" shape="2255.33,3455.48 2267.22,3465.34 2274.64,3466.18 2277.61,3457.99 2276.12,3440.78"/>
    </edge>
    <edge id=":antrim_78" function="internal">
        <lane id=":antrim_78_0" index="0" speed="10.00" length="51.53" shape="2255.33,3455.48 2267.53,3465.36 2275.55,3465.89 2279.38,3457.08 2279.03,3438.91"/>
    </edge>
    <edge id=":antrim_79" function="internal">
        <lane id=":antrim_79_0" index="0" speed="10.00" length="46.44" shape="2255.33,3455.48 2262.55,3463.80 2272.24,3475.98 2280.48,3487.15 2283.34,3492.39"/>
    </edge>
    <edge id=":antrim_80" function="internal">
        <lane id=":antrim_80_0" index="0" speed="3.66" length="4.71" shape="2255.33,3455.48 2255.77,3456.86 2255.58,3457.74 2254.76,3458.12 2253.31,3457.99"/>
    </edge>
    <edge id=":antrim_81" function="internal">
        <lane id=":antrim_81_0" index="0" speed="6.76" length="20.65" shape="2251.64,3460.07 2257.76,3464.65 2260.09,3465.83 2258.60,3463.61 2253.31,3457.99"/>
    </edge>
    <edge id=":antrim_82" function="internal">
        <lane id=":antrim_82_0" index="0" speed="8.53" length="32.81" shape="2251.64,3460.07 2261.23,3466.98 2265.22,3468.29 2263.61,3464.02 2256.39,3454.15"/>
    </edge>
    <edge id=":antrim_83" function="internal">
        <lane id=":antrim_83_0" index="0" speed="9.15" length="37.02" shape="2251.64,3460.07 2262.36,3467.59 2267.17,3468.72 2266.05,3463.47 2259.01,3451.83"/>
    </edge>
    <edge id=":antrim_84" function="internal">
        <lane id=":antrim_84_0" index="0" speed="9.45" length="38.90" shape="2251.64,3460.07 2262.87,3467.83 2268.14,3468.85 2267.45,3463.13 2260.80,3450.67"/>
    </edge>
    <edge id=":antrim_85" function="internal">
        <lane id=":antrim_85_0" index="0" speed="10.00" length="44.82" shape="2251.64,3460.07 2264.14,3468.23 2270.95,3468.67 2272.06,3461.38 2267.46,3446.37"/>
    </edge>
    <edge id=":antrim_86" function="internal">
        <lane id=":antrim_86_0" index="0" speed="10.00" length="47.29" shape="2251.64,3460.07 2264.55,3468.28 2271.98,3468.42 2273.92,3460.49 2270.39,3444.48"/>
    </edge>
    <edge id=":antrim_87" function="internal">
        <lane id=":antrim_87_0" index="0" speed="10.00" length="52.24" shape="2251.64,3460.07 2265.20,3468.28 2273.80,3467.81 2277.44,3458.64 2276.12,3440.78"/>
    </edge>
    <edge id=":antrim_88" function="internal">
        <lane id=":antrim_88_0" index="0" speed="10.00" length="54.84" shape="2251.64,3460.07 2265.49,3468.25 2274.67,3467.45 2279.18,3457.67 2279.03,3438.91"/>
    </edge>
    <edge id=":antrim_89" function="internal">
        <lane id=":antrim_89_0" index="0" speed="10.00" length="45.39" shape="2251.64,3460.07 2259.77,3467.30 2270.72,3477.93 2280.06,3487.72 2283.34,3492.39"/>
    </edge>
    <edge id=":antrim_90" function="internal">
        <lane id=":antrim_90_0" index="0" speed="8.25" length="29.76" shape="2267.86,3477.66 2270.64,3478.37 2269.15,3475.33 2263.37,3468.54 2253.31,3457.99"/>
    </edge>
    <edge id=":antrim_91" function="internal">
        <lane id=":antrim_91_0" index="0" speed="8.86" length="33.16" shape="2267.86,3477.66 2271.72,3478.60 2271.09,3474.99 2265.99,3466.84 2256.39,3454.15"/>
    </edge>
    <edge id=":antrim_92" function="internal">
        <lane id=":antrim_92_0" index="0" speed="9.22" length="34.98" shape="2267.86,3477.66 2272.28,3478.66 2272.28,3474.69 2267.86,3465.74 2259.01,3451.83"/>
    </edge>
    <edge id=":antrim_93" function="internal">
        <lane id=":antrim_93_0" index="0" speed="9.42" length="35.84" shape="2267.86,3477.66 2272.58,3478.69 2272.98,3474.53 2269.05,3465.19 2260.80,3450.67"/>
    </edge>
    <edge id=":antrim_94" function="internal">
        <lane id=":antrim_94_0" index="0" speed="10.00" length="39.52" shape="2267.86,3477.66 2273.48,3478.68 2275.30,3473.80 2273.29,3463.03 2267.46,3446.37"/>
    </edge>
    <edge id=":antrim_95" function="internal">
        <lane id=":antrim_95_0" index="0" speed="10.00" length="41.39" shape="2267.86,3477.66 2273.81,3478.64 2276.22,3473.43 2275.08,3462.04 2270.39,3444.48"/>
    </edge>
    <edge id=":antrim_96" function="internal">
        <lane id=":antrim_96_0" index="0" speed="10.00" length="45.46" shape="2267.86,3477.66 2274.38,3478.51 2277.93,3472.65 2278.51,3460.07 2276.12,3440.78"/>
    </edge>
    <edge id=":antrim_97" function="internal">
        <lane id=":antrim_97_0" index="0" speed="10.00" length="47.72" shape="2267.86,3477.66 2274.64,3478.44 2278.77,3472.24 2280.23,3459.06 2279.03,3438.91"/>
    </edge>
    <edge id=":antrim_98" function="internal">
        <lane id=":antrim_98_0" index="0" speed="8.61" length="23.68" shape="2267.86,3477.66 2275.41,3481.89 2281.41,3486.02 2284.50,3489.65 2283.34,3492.39"/>
    </edge>
    <edge id=":antrim_99" function="internal">
        <lane id=":antrim_99_0" index="0" speed="7.98" length="26.40" shape="2268.07,3477.09 2269.53,3476.80 2267.56,3473.52 2262.15,3467.25 2253.31,3457.99"/>
    </edge>
    <edge id=":antrim_100" function="internal">
        <lane id=":antrim_100_0" index="0" speed="8.65" length="29.95" shape="2268.07,3477.09 2270.80,3476.97 2269.77,3473.10 2264.96,3465.50 2256.39,3454.15"/>
    </edge>
    <edge id=":antrim_101" function="internal">
        <lane id=":antrim_101_0" index="0" speed="9.06" length="31.96" shape="2268.07,3477.09 2271.52,3477.03 2271.16,3472.80 2266.99,3464.40 2259.01,3451.83"/>
    </edge>
    <edge id=":antrim_102" function="internal">
        <lane id=":antrim_102_0" index="0" speed="9.28" length="32.94" shape="2268.07,3477.09 2271.91,3477.06 2271.97,3472.65 2268.27,3463.85 2260.80,3450.67"/>
    </edge>
    <edge id=":antrim_103" function="internal">
        <lane id=":antrim_103_0" index="0" speed="10.00" length="37.06" shape="2268.07,3477.09 2273.11,3477.09 2274.68,3471.97 2272.80,3461.73 2267.46,3446.37"/>
    </edge>
    <edge id=":antrim_104" function="internal">
        <lane id=":antrim_104_0" index="0" speed="10.00" length="43.39" shape="2266.94,3480.09 2273.36,3480.21 2276.08,3474.31 2275.09,3462.40 2270.39,3444.48"/>
    </edge>
    <edge id=":antrim_105" function="internal">
        <lane id=":antrim_105_0" index="0" speed="10.00" length="47.42" shape="2266.94,3480.09 2273.89,3480.04 2277.74,3473.47 2278.49,3460.39 2276.12,3440.78"/>
    </edge>
    <edge id=":antrim_106" function="internal">
        <lane id=":antrim_106_0" index="0" speed="10.00" length="49.66" shape="2266.94,3480.09 2274.14,3479.95 2278.56,3473.04 2280.19,3459.36 2279.03,3438.91"/>
    </edge>
    <edge id=":antrim_107" function="internal">
        <lane id=":antrim_107_0" index="0" speed="8.27" length="23.15" shape="2266.94,3480.09 2274.75,3483.27 2281.13,3486.59 2284.52,3489.74 2283.34,3492.39"/>
    </edge>
    <edge id=":athlone_0" function="internal">
        <lane id=":athlone_0_0" index="0" speed="5.81" length="14.28" shape="1256.69,1996.35 1258.07,2001.10 1258.96,2002.40 1259.35,2000.26 1259.24,1994.67"/>
    </edge>
    <edge id=":athlone_1" function="internal">
        <lane id=":athlone_1_0" index="0" speed="7.60" length="22.02" shape="1256.69,1996.35 1254.56,1987.63 1253.14,1981.13 1252.44,1976.85 1252.45,1974.79"/>
    </edge>
    <edge id=":athlone_2" function="internal">
        <lane id=":athlone_2_0" index="0" speed="10.00" length="33.25" shape="1256.69,1996.35 1252.80,1983.49 1248.75,1974.95 1244.52,1970.74 1240.13,1970.85"/>
    </edge>
    <edge id=":athlone_3" function="internal">
        <lane id=":athlone_3_0" index="0" speed="10.00" length="38.55" shape="1256.69,1996.35 1252.55,1980.54 1249.28,1969.15 1246.85,1962.19 1245.27,1959.65"/>
    </edge>
    <edge id=":athlone_4" function="internal">
        <lane id=":athlone_4_0" index="0" speed="10.00" length="53.39" shape="1256.69,1996.35 1252.81,1982.88 1247.58,1967.16 1242.38,1953.51 1238.55,1946.26"/>
    </edge>
    <edge id=":athlone_5" function="internal">
        <lane id=":athlone_5_0" index="0" speed="10.00" length="57.17" shape="1259.52,1994.49 1258.42,1980.15 1259.73,1962.44 1262.10,1946.58 1264.18,1937.84"/>
    </edge>
    <edge id=":athlone_6" function="internal">
        <lane id=":athlone_6_0" index="0" speed="10.00" length="57.73" shape="1259.52,1994.49 1257.60,1979.25 1260.00,1965.70 1266.71,1953.85 1277.73,1943.69"/>
    </edge>
    <edge id=":athlone_7" function="internal">
        <lane id=":athlone_7_0" index="0" speed="10.00" length="44.85" shape="1262.35,1992.64 1259.86,1977.92 1260.64,1966.36 1264.69,1957.95 1272.01,1952.69"/>
    </edge>
    <edge id=":athlone_8" function="internal">
        <lane id=":athlone_8_0" index="0" speed="6.66" length="18.05" shape="1262.35,1992.64 1263.40,1988.63 1267.18,1984.98 1271.77,1983.04 1275.27,1984.16"/>
    </edge>
    <edge id=":athlone_9" function="internal">
        <lane id=":athlone_9_0" index="0" speed="6.19" length="17.37" shape="1262.35,1992.64 1263.99,1998.82 1264.70,2000.77 1264.49,1998.49 1263.35,1991.98"/>
    </edge>
    <edge id=":athlone_10" function="internal">
        <lane id=":athlone_10_0" index="0" speed="5.72" length="14.46" shape="1262.35,1992.64 1263.71,1997.77 1264.32,1999.39 1264.16,1997.48 1263.24,1992.05"/>
    </edge>
    <edge id=":athlone_11" function="internal">
        <lane id=":athlone_11_0" index="0" speed="3.72" length="4.94" shape="1262.35,1992.64 1262.36,1991.11 1262.84,1990.29 1263.78,1990.18 1265.18,1990.78"/>
    </edge>
    <edge id=":athlone_12" function="internal">
        <lane id=":athlone_12_0" index="0" speed="7.31" length="22.61" shape="1271.40,1986.70 1266.66,1980.51 1264.04,1979.12 1263.55,1982.54 1265.18,1990.78"/>
    </edge>
    <edge id=":athlone_13" function="internal">
        <lane id=":athlone_13_0" index="0" speed="7.76" length="25.05" shape="1271.40,1986.70 1266.23,1980.12 1263.17,1978.81 1262.21,1982.76 1263.35,1991.98"/>
    </edge>
    <edge id=":athlone_14" function="internal">
        <lane id=":athlone_14_0" index="0" speed="6.37" length="16.22" shape="1271.40,1986.70 1268.06,1982.45 1266.07,1981.61 1265.43,1984.18 1266.15,1990.15"/>
    </edge>
    <edge id=":athlone_15" function="internal">
        <lane id=":athlone_15_0" index="0" speed="8.62" length="29.66" shape="1271.40,1986.70 1265.57,1979.68 1261.60,1978.67 1259.49,1983.67 1259.24,1994.67"/>
    </edge>
    <edge id=":athlone_16" function="internal">
        <lane id=":athlone_16_0" index="0" speed="9.04" length="27.02" shape="1271.40,1986.70 1264.59,1977.61 1259.16,1972.60 1255.11,1971.66 1252.45,1974.79"/>
    </edge>
    <edge id=":athlone_17" function="internal">
        <lane id=":athlone_17_0" index="0" speed="10.00" length="38.47" shape="1271.40,1986.70 1263.47,1976.85 1255.61,1970.92 1247.83,1968.92 1240.13,1970.85"/>
    </edge>
    <edge id=":athlone_18" function="internal">
        <lane id=":athlone_18_0" index="0" speed="10.00" length="37.75" shape="1271.40,1986.70 1266.81,1980.92 1259.09,1972.13 1250.99,1963.87 1245.27,1959.65"/>
    </edge>
    <edge id=":athlone_19" function="internal">
        <lane id=":athlone_19_0" index="0" speed="10.00" length="52.11" shape="1271.40,1986.70 1265.59,1979.12 1255.27,1966.23 1244.80,1953.46 1238.55,1946.26"/>
    </edge>
    <edge id=":athlone_20" function="internal">
        <lane id=":athlone_20_0" index="0" speed="10.00" length="51.57" shape="1271.40,1986.70 1264.49,1974.07 1260.99,1961.72 1260.88,1949.64 1264.18,1937.84"/>
    </edge>
    <edge id=":athlone_21" function="internal">
        <lane id=":athlone_21_0" index="0" speed="10.00" length="49.32" shape="1271.40,1986.70 1265.19,1974.22 1264.18,1962.90 1268.36,1952.72 1277.73,1943.69"/>
    </edge>
    <edge id=":athlone_22" function="internal">
        <lane id=":athlone_22_0" index="0" speed="10.00" length="35.89" shape="1271.40,1986.70 1268.38,1978.70 1267.13,1968.05 1268.16,1958.22 1272.01,1952.69"/>
    </edge>
    <edge id=":athlone_23" function="internal">
        <lane id=":athlone_23_0" index="0" speed="4.14" length="6.54" shape="1271.40,1986.70 1271.18,1985.12 1272.22,1983.86 1273.81,1983.39 1275.27,1984.16"/>
    </edge>
    <edge id=":athlone_24" function="internal">
        <lane id=":athlone_24_0" index="0" speed="6.20" length="15.41" shape="1269.91,1987.68 1266.48,1983.68 1264.56,1982.87 1264.12,1985.23 1265.18,1990.78"/>
    </edge>
    <edge id=":athlone_25" function="internal">