<?xml version="1.0" encoding="UTF-8"?>

<!-- generated on 2025-02-19 12:48:55 by Eclipse SUMO netconvert Version 1.18.0
<configuration xmlns:xsi="http://www.w3.org/2001/XMLSchema-instance" xsi:noNamespaceSchemaLocation="http://sumo.dlr.de/xsd/netconvertConfiguration.xsd">

    <input>
        <node-files value="nod.xml"/>
        <edge-files value="edge_xmls/07992.xml"/>
    </input>

    <output>
        <output-file value="networks/07992.net.xml"/>
    </output>

</configuration>
-->

<net version="1.16" junctionCornerDetail="5" limitTurnSpeed="5.50" xmlns:xsi="http://www.w3.org/2001/XMLSchema-instance" xsi:noNamespaceSchemaLocation="http://sumo.dlr.de/xsd/net_file.xsd">

    <location netOffset="-682.00,4368.00" convBoundary="0.00,0.00,2498.00,3881.00" origBoundary="682.00,-4368.00,3180.00,-487.00" projParameter="!"/>

    <edge id=":antrim_0" function="internal">
        <lane id=":antrim_0_0" index="0" speed="10.00" length="11.57" shape="2293.27,3486.45 2283.34,3492.39"/>
    </edge>
    <edge id=":antrim_1" function="internal">
        <lane id=":antrim_1_0" index="0" speed="10.00" length="38.61" shape="2293.27,3486.45 2287.51,3487.54 2280.69,3484.45 2272.80,3477.18 2263.86,3465.73"/>
    </edge>
    <edge id=":antrim_2" function="internal">
        <lane id=":antrim_2_0" index="0" speed="10.00" length="34.20" shape="2293.27,3486.45 2289.18,3484.27 2283.04,3476.96 2276.89,3467.73 2272.76,3459.81"/>
    </edge>
    <edge id=":antrim_3" function="internal">
        <lane id=":antrim_3_0" index="0" speed="10.00" length="38.42" shape="2283.91,3454.46 2285.30,3470.11 2285.67,3481.65 2285.01,3489.07 2283.34,3492.39"/>
    </edge>
    <edge id=":antrim_4" function="internal">
        <lane id=":antrim_4_0" index="0" speed="8.17" length="26.97" shape="2283.91,3454.46 2282.58,3461.83 2278.02,3466.70 2272.07,3467.82 2266.53,3463.96"/>
    </edge>
    <edge id=":antrim_5" function="internal">
        <lane id=":antrim_5_0" index="0" speed="5.91" length="14.51" shape="2283.91,3454.46 2282.57,3457.57 2279.07,3460.11 2275.20,3461.17 2272.76,3459.81"/>
    </edge>
    <edge id=":antrim_6" function="internal">
        <lane id=":antrim_6_0" index="0" speed="10.00" length="38.17" shape="2281.77,3454.80 2284.12,3470.29 2285.16,3481.71 2284.90,3489.08 2283.34,3492.39"/>
    </edge>
    <edge id=":antrim_7" function="internal">
        <lane id=":antrim_7_0" index="0" speed="7.70" length="24.35" shape="2281.77,3454.80 2280.89,3461.48 2276.90,3466.07 2271.53,3467.31 2266.53,3463.96"/>
    </edge>
    <edge id=":antrim_8" function="internal">
        <lane id=":antrim_8_0" index="0" speed="5.41" length="12.11" shape="2281.77,3454.80 2280.78,3457.46 2277.96,3459.77 2274.78,3460.85 2272.76,3459.81"/>
    </edge>
    <edge id=":antrim_9" function="internal">
        <lane id=":antrim_9_0" index="0" speed="10.00" length="37.31" shape="2278.38,3456.08 2282.25,3470.98 2284.37,3482.00 2284.73,3489.14 2283.34,3492.39"/>
    </edge>
    <edge id=":antrim_10" function="internal">
        <lane id=":antrim_10_0" index="0" speed="6.85" length="19.68" shape="2278.38,3456.08 2278.07,3461.43 2274.96,3465.30 2270.59,3466.53 2266.53,3463.96"/>
    </edge>
    <edge id=":antrim_11" function="internal">
        <lane id=":antrim_11_0" index="0" speed="4.89" length="9.85" shape="2278.38,3456.08 2278.38,3459.12 2277.44,3460.75 2275.57,3460.98 2272.76,3459.81"/>
    </edge>
    <edge id=":antrim_12" function="internal">
        <lane id=":antrim_12_0" index="0" speed="5.56" length="12.84" shape="2272.31,3460.11 2269.57,3456.35 2268.28,3455.35 2268.44,3457.11 2270.04,3461.62"/>
    </edge>
    <edge id=":antrim_13" function="internal">
        <lane id=":antrim_13_0" index="0" speed="10.00" length="34.61" shape="2272.31,3460.11 2276.56,3468.02 2280.82,3478.36 2283.59,3487.65 2283.34,3492.39"/>
    </edge>
    <edge id=":antrim_14" function="internal">
        <lane id=":antrim_14_0" index="0" speed="3.41" length="3.75" shape="2269.65,3461.88 2266.53,3463.96"/>
    </edge>
    <edge id=":antrim_15" function="internal">
        <lane id=":antrim_15_0" index="0" speed="3.69" length="4.45" shape="2269.19,3462.18 2270.16,3463.46 2270.63,3463.79 2270.59,3463.18 2270.04,3461.62"/>
    </edge>
    <edge id=":antrim_16" function="internal">
        <lane id=":antrim_16_0" index="0" speed="10.00" length="34.43" shape="2269.19,3462.18 2277.24,3474.32 2282.29,3483.40 2284.32,3489.42 2283.34,3492.39"/>
    </edge>
    <edge id=":antrim_17" function="internal">
        <lane id=":antrim_17_0" index="0" speed="3.65" length="4.67" shape="2269.19,3462.18 2269.19,3463.63 2268.74,3464.40 2267.86,3464.51 2266.53,3463.96"/>
    </edge>
    <edge id=":antrim_18" function="internal">
        <lane id=":antrim_18_0" index="0" speed="2.56" length="1.05" shape="2264.03,3465.62 2263.73,3465.35 2263.61,3465.28 2263.65,3465.41 2263.86,3465.73"/>
    </edge>
    <edge id=":antrim_19" function="internal">
        <lane id=":antrim_19_0" index="0" speed="6.77" length="18.45" shape="2264.03,3465.62 2268.99,3469.79 2271.65,3470.51 2272.00,3467.79 2270.04,3461.62"/>
    </edge>
    <edge id=":antrim_20" function="internal">
        <lane id=":antrim_20_0" index="0" speed="10.00" length="33.29" shape="2264.03,3465.62 2270.05,3472.23 2276.89,3480.85 2282.13,3488.55 2283.34,3492.39"/>
    </edge>
    <edge id=":antrim_21" function="internal">
        <lane id=":antrim_21_0" index="0" speed="6.71" length="17.77" shape="2273.46,3480.61 2273.34,3479.93 2271.70,3477.22 2268.54,3472.49 2263.86,3465.73"/>
    </edge>
    <edge id=":antrim_22" function="internal">
        <lane id=":antrim_22_0" index="0" speed="7.65" length="21.37" shape="2273.46,3480.61 2275.17,3480.43 2275.17,3477.21 2273.46,3470.94 2270.04,3461.62"/>
    </edge>
    <edge id=":antrim_23" function="internal">
        <lane id=":antrim_23_0" index="0" speed="7.25" length="16.40" shape="2273.46,3480.61 2277.34,3483.21 2281.22,3486.74 2283.70,3490.16 2283.34,3492.39"/>
    </edge>
    <edge id=":antrim_24" function="internal">
        <lane id=":antrim_24_0" index="0" speed="7.99" length="22.76" shape="2272.07,3484.73 2273.76,3483.96 2272.95,3480.54 2269.65,3474.46 2263.86,3465.73"/>
    </edge>
    <edge id=":antrim_25" function="internal">
        <lane id=":antrim_25_0" index="0" speed="9.55" length="29.55" shape="2272.07,3484.73 2276.38,3483.98 2277.93,3479.58 2276.73,3471.52 2272.76,3459.81"/>
    </edge>
    <edge id=":antrim_26" function="internal">
        <lane id=":antrim_26_0" index="0" speed="7.04" length="17.78" shape="2272.07,3484.73 2279.69,3486.52 2284.11,3488.40 2285.33,3490.35 2283.34,3492.39"/>
    </edge>
    <edge id=":athlone_0" function="internal">
        <lane id=":athlone_0_0" index="0" speed="7.85" length="25.98" shape="1261.13,1998.40 1258.63,1986.68 1256.37,1980.56 1254.35,1980.04 1252.57,1985.13"/>
    </edge>
    <edge id=":athlone_1" function="internal">
        <lane id=":athlone_1_0" index="0" speed="8.64" length="29.84" shape="1261.13,1998.40 1258.24,1985.70 1255.23,1979.08 1252.12,1978.53 1248.91,1984.05"/>
    </edge>
    <edge id=":athlone_2" function="internal">
        <lane id=":athlone_2_0" index="0" speed="10.00" length="35.47" shape="1261.13,1998.40 1258.07,1983.24 1255.19,1972.76 1252.50,1966.96 1250.01,1965.83"/>
    </edge>
    <edge id=":athlone_3" function="internal">
        <lane id=":athlone_3_0" index="0" speed="10.00" length="52.29" shape="1261.13,1998.40 1259.86,1988.90 1257.95,1972.42 1256.30,1955.94 1255.79,1946.41"/>
    </edge>
    <edge id=":athlone_4" function="internal">
        <lane id=":athlone_4_0" index="0" speed="10.00" length="56.37" shape="1261.13,1998.40 1260.67,1988.18 1260.67,1970.14 1261.20,1952.16 1262.35,1942.12"/>
    </edge>
    <edge id=":athlone_5" function="internal">
        <lane id=":athlone_5_0" index="0" speed="10.00" length="55.76" shape="1261.13,1998.40 1258.87,1980.84 1258.90,1965.93 1261.22,1953.67 1265.84,1944.05"/>
    </edge>
    <edge id=":athlone_6" function="internal">
        <lane id=":athlone_6_0" index="0" speed="10.00" length="55.44" shape="1261.13,1998.40 1258.91,1980.86 1259.09,1966.04 1261.66,1953.96 1266.63,1944.61"/>
    </edge>
    <edge id=":athlone_7" function="internal">
        <lane id=":athlone_7_0" index="0" speed="10.00" length="54.05" shape="1261.13,1998.40 1259.20,1980.96 1260.30,1966.75 1264.42,1955.78 1271.56,1948.05"/>
    </edge>
    <edge id=":athlone_8" function="internal">
        <lane id=":athlone_8_0" index="0" speed="10.00" length="50.43" shape="1261.13,1998.40 1259.21,1981.15 1260.38,1967.78 1264.65,1958.29 1272.01,1952.69"/>
    </edge>
    <edge id=":athlone_9" function="internal">
        <lane id=":athlone_9_0" index="0" speed="10.00" length="42.58" shape="1261.13,1998.40 1259.15,1984.06 1259.31,1972.07 1262.70,1964.51 1270.46,1963.52"/>
    </edge>
    <edge id=":athlone_10" function="internal">
        <lane id=":athlone_10_0" index="0" speed="8.17" length="27.44" shape="1261.13,1998.40 1262.13,1991.04 1266.74,1986.21 1272.98,1985.11 1278.83,1988.95"/>
    </edge>
    <edge id=":athlone_11" function="internal">
        <lane id=":athlone_11_0" index="0" speed="7.79" length="25.23" shape="1261.13,1998.40 1262.12,1991.65 1266.47,1987.24 1272.24,1986.29 1277.45,1989.96"/>
    </edge>
    <edge id=":athlone_12" function="internal">
        <lane id=":athlone_12_0" index="0" speed="7.42" length="23.31" shape="1261.13,1998.40 1261.98,1991.26 1264.63,1987.67 1269.09,1987.64 1275.36,1991.16"/>
    </edge>
    <edge id=":athlone_13" function="internal">
        <lane id=":athlone_13_0" index="0" speed="2.69" length="1.44" shape="1278.73,1989.02 1279.10,1989.42 1279.23,1989.54 1279.15,1989.38 1278.83,1988.95"/>
    </edge>
    <edge id=":athlone_14" function="internal">
        <lane id=":athlone_14_0" index="0" speed="5.35" length="12.09" shape="1278.73,1989.02 1275.67,1985.71 1274.43,1984.76 1275.02,1986.18 1277.45,1989.96"/>
    </edge>
    <edge id=":athlone_15" function="internal">
        <lane id=":athlone_15_0" index="0" speed="6.80" length="20.40" shape="1278.73,1989.02 1273.52,1983.52 1271.22,1982.04 1271.83,1984.59 1275.36,1991.16"/>
    </edge>
    <edge id=":athlone_16" function="internal">
        <lane id=":athlone_16_0" index="0" speed="10.00" length="36.11" shape="1278.73,1989.02 1268.92,1979.56 1261.28,1975.76 1255.84,1977.61 1252.57,1985.13"/>
    </edge>
    <edge id=":athlone_17" function="internal">
        <lane id=":athlone_17_0" index="0" speed="10.00" length="38.69" shape="1278.73,1989.02 1268.55,1979.34 1260.19,1975.29 1253.64,1976.86 1248.91,1984.05"/>
    </edge>
    <edge id=":athlone_18" function="internal">
        <lane id=":athlone_18_0" index="0" speed="10.00" length="37.77" shape="1278.73,1989.02 1268.27,1977.81 1260.00,1970.21 1253.91,1966.21 1250.01,1965.83"/>
    </edge>
    <edge id=":athlone_19" function="internal">
        <lane id=":athlone_19_0" index="0" speed="10.00" length="49.42" shape="1278.73,1989.02 1268.15,1976.05 1260.80,1964.63 1256.68,1954.74 1255.79,1946.41"/>
    </edge>
    <edge id=":athlone_20" function="internal">
        <lane id=":athlone_20_0" index="0" speed="10.00" length="52.24" shape="1278.73,1989.02 1268.48,1975.69 1262.34,1963.44 1260.29,1952.24 1262.35,1942.12"/>
    </edge>
    <edge id=":athlone_21" function="internal">
        <lane id=":athlone_21_0" index="0" speed="10.00" length="50.32" shape="1278.73,1989.02 1268.64,1975.75 1263.13,1963.83 1262.19,1953.26 1265.84,1944.05"/>
    </edge>
    <edge id=":athlone_22" function="internal">
        <lane id=":athlone_22_0" index="0" speed="10.00" length="49.84" shape="1278.73,1989.02 1268.67,1975.76 1263.30,1963.94 1262.62,1953.56 1266.63,1944.61"/>
    </edge>
    <edge id=":athlone_23" function="internal">
        <lane id=":athlone_23_0" index="0" speed="10.00" length="48.33" shape="1278.73,1989.02 1269.04,1976.81 1263.79,1966.01 1264.22,1956.47 1271.56,1948.05"/>
    </edge>
    <edge id=":athlone_24" function="internal">
        <lane id=":athlone_24_0" index="0" speed="10.00" length="38.67" shape="1278.73,1989.02 1274.24,1980.93 1270.63,1969.40 1269.38,1958.60 1272.01,1952.69"/>
    </edge>
    <edge id=":athlone_25" function="internal">
        <lane id=":athlone_25_0" index="0" speed="9.40" length="35.39" shape="1278.73,1989.02 1271.26,1979.75 1265.53,1970.54 1264.33,1964.19 1270.46,1963.52"/>
    </edge>
    <edge id=":athlone_26" function="internal">
        <lane id=":athlone_26_0" index="0" speed="5.00" length="9.68" shape="1269.26,1946.44 1267.34,1949.21 1267.09,1950.40 1268.50,1950.01 1271.56,1948.05"/>
    </edge>
    <edge id=":athlone_27" function="internal">
        <lane id=":athlone_27_0" index="0" speed="6.17" length="14.44" shape="1269.26,1946.44 1266.30,1950.88 1265.77,1953.41 1267.67,1954.01 1272.01,1952.69"/>
    </edge>
    <edge id=":athlone_28" function="internal">
        <lane id=":athlone_28_0" index="0" speed="8.62" length="21.41" shape="1269.26,1946.44 1265.38,1952.64 1264.28,1957.55 1265.98,1961.17 1270.46,1963.52"/>
    </edge>
    <edge id=":athlone_29" function="internal">
        <lane id=":athlone_29_0" index="0" speed="10.00" length="44.87" shape="1269.26,1946.44 1266.56,1953.46 1267.69,1962.57 1272.64,1973.77 1281.42,1987.06"/>
    </edge>
    <edge id=":athlone_30" function="internal">
        <lane id=":athlone_30_0" index="0" speed="10.00" length="45.30" shape="1269.26,1946.44 1266.47,1953.52 1267.34,1962.82 1271.86,1974.34 1280.03,1988.07"/>
    </edge>
    <edge id=":athlone_31" function="internal">
        <lane id=":athlone_31_0" index="0" speed="10.00" length="47.64" shape="1269.26,1946.44 1265.39,1954.74 1265.12,1964.96 1268.44,1977.10 1275.36,1991.16"/>
    </edge>
    <edge id=":athlone_32" function="internal">
        <lane id=":athlone_32_0" index="0" speed="10.00" length="42.19" shape="1269.26,1946.44 1265.51,1953.47 1260.16,1965.43 1255.19,1977.58 1252.57,1985.13"/>
    </edge>
    <edge id=":athlone_33" function="internal">
        <lane id=":athlone_33_0" index="0" speed="10.00" length="42.79" shape="1269.26,1946.44 1265.04,1953.33 1258.61,1964.98 1252.41,1976.76 1248.91,1984.05"/>
    </edge>
    <edge id=":athlone_34" function="internal">
        <lane id=":athlone_34_0" index="0" speed="10.00" length="27.40" shape="1269.26,1946.44 1265.59,1950.82 1260.16,1956.77 1254.47,1962.41 1250.01,1965.83"/>
    </edge>
    <edge id=":athlone_35" function="internal">
        <lane id=":athlone_35_0" index="0" speed="6.42" length="15.53" shape="1269.26,1946.44 1265.94,1948.56 1261.33,1949.43 1257.33,1948.80 1255.79,1946.41"/>
    </edge>
    <edge id=":athlone_36" function="internal">
        <lane id=":athlone_36_0" index="0" speed="4.95" length="9.59" shape="1269.26,1946.44 1267.33,1947.02 1264.78,1946.02 1262.74,1944.15 1262.35,1942.12"/>
    </edge>
    <edge id=":athlone_37" function="internal">
        <lane id=":athlone_37_0" index="0" speed="3.98" length="5.89" shape="1269.26,1946.44 1267.94,1947.11 1266.52,1946.65 1265.62,1945.49 1265.84,1944.05"/>
    </edge>
    <edge id=":athlone_38" function="internal">
        <lane id=":athlone_38_0" index="0" speed="3.65" length="4.68" shape="1269.26,1946.44 1267.91,1946.97 1267.03,1946.84 1266.60,1946.05 1266.63,1944.61"/>
    </edge>
    <edge id=":athlone_39" function="internal">
        <lane id=":athlone_39_0" index="0" speed="2.86" length="1.74" shape="1271.09,1947.72 1270.78,1948.23 1270.75,1948.45 1271.01,1948.39 1271.56,1948.05"/>
    </edge>
    <edge id=":athlone_40" function="internal">
        <lane id=":athlone_40_0" index="0" speed="5.12" length="9.15" shape="1271.09,1947.72 1269.19,1950.84 1268.71,1952.71 1269.65,1953.33 1272.01,1952.69"/>
    </edge>
    <edge id=":athlone_41" function="internal">
        <lane id=":athlone_41_0" index="0" speed="8.24" length="18.87" shape="1271.09,1947.72 1267.58,1953.69 1266.30,1958.32 1267.27,1961.59 1270.46,1963.52"/>
    </edge>
    <edge id=":athlone_42" function="internal">
        <lane id=":athlone_42_0" index="0" speed="10.00" length="43.11" shape="1271.09,1947.72 1268.29,1955.12 1269.08,1964.14 1273.46,1974.79 1281.42,1987.06"/>
    </edge>
    <edge id=":athlone_43" function="internal">
        <lane id=":athlone_43_0" index="0" speed="10.00" length="43.60" shape="1271.09,1947.72 1268.17,1955.24 1268.69,1964.47 1272.64,1975.41 1280.03,1988.07"/>
    </edge>
    <edge id=":athlone_44" function="internal">
        <lane id=":athlone_44_0" index="0" speed="10.00" length="46.05" shape="1271.09,1947.72 1267.07,1956.59 1266.45,1966.79 1269.21,1978.31 1275.36,1991.16"/>
    </edge>
    <edge id=":athlone_45" function="internal">
        <lane id=":athlone_45_0" index="0" speed="10.00" length="41.82" shape="1271.09,1947.72 1265.93,1956.34 1260.08,1967.67 1255.10,1978.38 1252.57,1985.13"/>
    </edge>
    <edge id=":athlone_46" function="internal">
        <lane id=":athlone_46_0" index="0" speed="10.00" length="42.92" shape="1268.46,1945.89 1263.25,1954.66 1257.21,1966.30 1251.91,1977.27 1248.91,1984.05"/>
    </edge>
    <edge id=":athlone_47" function="internal">
        <lane id=":athlone_47_0" index="0" speed="10.00" length="27.32" shape="1268.46,1945.89 1263.80,1952.15 1258.77,1958.09 1253.97,1962.92 1250.01,1965.83"/>
    </edge>
    <edge id=":athlone_48" function="internal">
        <lane id=":athlone_48_0" index="0" speed="6.20" length="14.65" shape="1268.46,1945.89 1265.41,1948.02 1261.07,1949.03 1257.26,1948.59 1255.79,1946.41"/>
    </edge>
    <edge id=":athlone_49" function="internal">
        <lane id=":athlone_49_0" index="0" speed="4.67" length="8.47" shape="1268.46,1945.89 1266.80,1946.44 1264.54,1945.56 1262.71,1943.91 1262.35,1942.12"/>
    </edge>
    <edge id=":athlone_50" function="internal">
        <lane id=":athlone_50_0" index="0" speed="9.61" length="45.26" shape="1268.46,1945.89 1278.02,1931.90 1280.90,1927.03 1277.11,1931.26 1266.63,1944.61"/>
    </edge>
    <edge id=":athlone_51" function="internal">
        <lane id=":athlone_51_0" index="0" speed="3.65" length="4.67" shape="1268.46,1945.89 1267.12,1946.41 1266.24,1946.28 1265.81,1945.50 1265.84,1944.05"/>
    </edge>
    <edge id=":athlone_52" function="internal">
        <lane id=":athlone_52_0" index="0" speed="5.30" length="10.95" shape="1268.69,1946.04 1266.67,1949.23 1266.48,1950.63 1268.11,1950.23 1271.56,1948.05"/>
    </edge>
    <edge id=":athlone_53" function="internal">
        <lane id=":athlone_53_0" index="0" speed="6.33" length="15.03" shape="1268.69,1946.04 1265.84,1950.72 1265.45,1953.39 1267.50,1954.04 1272.01,1952.69"/>
    </edge>
    <edge id=":athlone_54" function="internal">
        <lane id=":athlone_54_0" index="0" speed="8.77" length="21.72" shape="1268.69,1946.04 1265.02,1952.40 1264.10,1957.44 1265.91,1961.14 1270.46,1963.52"/>
    </edge>
    <edge id=":athlone_55" function="internal">
        <lane id=":athlone_55_0" index="0" speed="10.00" length="45.28" shape="1268.69,1946.04 1266.20,1953.18 1267.50,1962.40 1272.57,1973.69 1281.42,1987.06"/>
    </edge>
    <edge id=":athlone_56" function="internal">
        <lane id=":athlone_56_0" index="0" speed="10.00" length="45.70" shape="1268.69,1946.04 1266.12,1953.25 1267.15,1962.65 1271.79,1974.26 1280.03,1988.07"/>
    </edge>
    <edge id=":athlone_57" function="internal">
        <lane id=":athlone_57_0" index="0" speed="10.00" length="47.96" shape="1268.69,1946.04 1265.06,1954.51 1264.96,1964.85 1268.40,1977.06 1275.36,1991.16"/>
    </edge>
    <edge id=":athlone_58" function="internal">
        <lane id=":athlone_58_0" index="0" speed="10.00" length="42.33" shape="1268.69,1946.04 1265.09,1953.18 1259.92,1965.28 1255.12,1977.53 1252.57,1985.13"/>
    </edge>
    <edge id=":athlone_59" function="internal">
        <lane id=":athlone_59_0" index="0" speed="10.00" length="42.87" shape="1268.69,1946.04 1264.62,1953.04 1258.38,1964.82 1252.34,1976.72 1248.91,1984.05"/>
    </edge>
    <edge id=":athlone_60" function="internal">
        <lane id=":athlone_60_0" index="0" speed="10.00" length="27.31" shape="1268.69,1946.04 1265.17,1950.53 1259.93,1956.61 1254.40,1962.36 1250.01,1965.83"/>
    </edge>
    <edge id=":athlone_61" function="internal">
        <lane id=":athlone_61_0" index="0" speed="6.26" length="14.90" shape="1268.69,1946.04 1265.56,1948.18 1261.14,1949.14 1257.28,1948.65 1255.79,1946.41"/>
    </edge>
    <edge id=":athlone_62" function="internal">
        <lane id=":athlone_62_0" index="0" speed="3.33" length="3.47" shape="1268.69,1946.04 1265.84,1944.05"/>
    </edge>
    <edge id=":athlone_63" function="internal">
        <lane id=":athlone_63_0" index="0" speed="10.00" length="70.74" shape="1268.69,1946.04 1283.99,1924.42 1288.75,1916.97 1282.97,1923.70 1266.63,1944.61"/>
    </edge>
    <edge id=":athlone_64" function="internal">
        <lane id=":athlone_64_0" index="0" speed="5.19" length="10.89" shape="1268.69,1946.04 1265.63,1947.44 1263.56,1947.25 1262.46,1945.48 1262.35,1942.12"/>
    </edge>
    <edge id=":athlone_65" function="internal">
        <lane id=":athlone_65_0" index="0" speed="6.18" length="12.19" shape="1249.47,1952.41 1251.83,1953.95 1253.68,1953.47 1254.99,1950.95 1255.79,1946.41"/>
    </edge>
    <edge id=":athlone_66" function="internal">
        <lane id=":athlone_66_0" index="0" speed="8.25" length="19.42" shape="1249.47,1952.41 1252.51,1953.95 1255.68,1952.75 1258.95,1948.80 1262.35,1942.12"/>
    </edge>
    <edge id=":athlone_67" function="internal">
        <lane id=":athlone_67_0" index="0" speed="9.08" length="20.90" shape="1249.47,1952.41 1252.85,1954.19 1256.71,1953.39 1261.04,1950.01 1265.84,1944.05"/>
    </edge>
    <edge id=":athlone_68" function="internal">
        <lane id=":athlone_68_0" index="0" speed="9.30" length="21.26" shape="1249.47,1952.41 1252.93,1954.24 1256.94,1953.56 1261.51,1950.34 1266.63,1944.61"/>
    </edge>
    <edge id=":athlone_69" function="internal">
        <lane id=":athlone_69_0" index="0" speed="10.00" length="24.26" shape="1249.47,1952.41 1253.36,1954.58 1258.34,1954.58 1264.41,1952.40 1271.56,1948.05"/>
    </edge>
    <edge id=":athlone_70" function="internal">
        <lane id=":athlone_70_0" index="0" speed="10.00" length="23.78" shape="1249.47,1952.41 1253.46,1954.94 1258.55,1955.84 1264.73,1955.09 1272.01,1952.69"/>
    </edge>
    <edge id=":athlone_71" function="internal">
        <lane id=":athlone_71_0" index="0" speed="10.00" length="23.85" shape="1249.47,1952.41 1253.58,1955.42 1259.51,1958.75 1265.66,1961.69 1270.46,1963.52"/>
    </edge>
    <edge id=":athlone_72" function="internal">
        <lane id=":athlone_72_0" index="0" speed="10.00" length="47.02" shape="1249.47,1952.41 1255.13,1958.17 1264.54,1968.04 1274.41,1978.75 1281.42,1987.06"/>
        <lane id=":athlone_72_1" index="1" speed="10.00" length="47.02" shape="1249.47,1952.41 1254.73,1958.46 1263.25,1968.98 1272.23,1980.35 1278.83,1988.95"/>
    </edge>
    <edge id=":athlone_74" function="internal">
        <lane id=":athlone_74_0" index="0" speed="10.00" length="46.92" shape="1249.47,1952.41 1254.97,1958.29 1264.00,1968.44 1273.40,1979.49 1280.03,1988.07"/>
        <lane id=":athlone_74_1" index="1" speed="10.00" length="46.92" shape="1249.47,1952.41 1254.56,1958.58 1262.71,1969.38 1271.22,1981.08 1277.45,1989.96"/>
    </edge>
    <edge id=":athlone_76" function="internal">
        <lane id=":athlone_76_0" index="0" speed="10.00" length="46.63" shape="1249.47,1952.41 1254.67,1959.33 1262.82,1971.47 1270.76,1983.77 1275.36,1991.16"/>
    </edge>
    <edge id=":athlone_77" function="internal">
        <lane id=":athlone_77_0" index="0" speed="10.00" length="34.02" shape="1249.47,1952.41 1252.77,1957.48 1254.38,1964.62 1254.32,1973.84 1252.57,1985.13"/>
    </edge>
    <edge id=":athlone_78" function="internal">
        <lane id=":athlone_78_0" index="0" speed="10.00" length="33.20" shape="1249.47,1952.41 1252.58,1957.45 1253.53,1964.41 1252.30,1973.28 1248.91,1984.05"/>
    </edge>
    <edge id=":athlone_79" function="internal">
        <lane id=":athlone_79_0" index="0" speed="7.76" length="16.64" shape="1249.47,1952.41 1252.97,1956.63 1254.23,1960.27 1253.24,1963.34 1250.01,1965.83"/>
    </edge>
    <edge id=":belfast_0" function="internal">
        <lane id=":belfast_0_0" index="0" speed="6.29" length="16.41" shape="2490.94,3335.37 2493.16,3340.71 2494.68,3342.25 2495.49,3339.99 2495.60,3333.93"/>
    </edge>
    <edge id=":belfast_1" function="internal">
        <lane id=":belfast_1_0" index="0" speed="10.00" length="30.36" shape="2490.94,3335.37 2494.50,3346.68 2496.17,3355.28 2495.96,3361.19 2493.86,3364.39"/>
    </edge>
    <edge id=":belfast_2" function="internal">
        <lane id=":belfast_2_0" index="0" speed="10.00" length="40.70" shape="2490.94,3335.37 2487.99,3341.68 2477.94,3347.25 2465.71,3350.85 2456.23,3351.25"/>
    </edge>
    <edge id=":belfast_3" function="internal">
        <lane id=":belfast_3_0" index="0" speed="10.00" length="48.36" shape="2490.94,3335.37 2491.29,3346.70 2483.75,3352.07 2471.14,3352.68 2456.29,3349.75"/>
    </edge>
    <edge id=":belfast_4" function="internal">
        <lane id=":belfast_4_0" index="0" speed="8.33" length="28.26" shape="2490.94,3335.37 2490.53,3341.29 2485.17,3343.05 2477.47,3341.28 2470.03,3336.62"/>
    </edge>
    <edge id=":belfast_5" function="internal">
        <lane id=":belfast_5_0" index="0" speed="7.14" length="21.12" shape="2490.94,3335.37 2489.52,3338.21 2484.08,3338.48 2477.50,3336.82 2472.63,3333.83"/>
    </edge>
    <edge id=":belfast_6" function="internal">
        <lane id=":belfast_6_0" index="0" speed="6.49" length="19.25" shape="2490.94,3335.37 2488.45,3328.61 2487.40,3326.42 2487.79,3328.81 2489.63,3335.77"/>
    </edge>
    <edge id=":belfast_7" function="internal">
        <lane id=":belfast_7_0" index="0" speed="3.50" length="4.09" shape="2490.94,3335.37 2490.58,3336.58 2490.02,3337.12 2489.25,3336.99 2488.27,3336.19"/>
    </edge>
    <edge id=":belfast_8" function="internal">
        <lane id=":belfast_8_0" index="0" speed="3.12" length="2.65" shape="2487.92,3336.30 2488.38,3337.18 2488.60,3337.45 2488.56,3337.12 2488.27,3336.19"/>
    </edge>
    <edge id=":belfast_9" function="internal">
        <lane id=":belfast_9_0" index="0" speed="4.86" length="9.40" shape="2487.92,3336.30 2489.58,3339.38 2490.43,3340.32 2490.44,3339.12 2489.63,3335.77"/>
    </edge>
    <edge id=":belfast_10" function="internal">
        <lane id=":belfast_10_0" index="0" speed="7.08" length="20.32" shape="2487.92,3336.30 2491.50,3342.34 2493.97,3343.95 2495.34,3341.15 2495.60,3333.93"/>
    </edge>
    <edge id=":belfast_11" function="internal">
        <lane id=":belfast_11_0" index="0" speed="10.00" length="30.13" shape="2487.92,3336.30 2492.85,3347.17 2495.49,3355.47 2495.83,3361.21 2493.86,3364.39"/>
    </edge>
    <edge id=":belfast_12" function="internal">
        <lane id=":belfast_12_0" index="0" speed="10.00" length="37.88" shape="2487.92,3336.30 2485.86,3342.29 2476.80,3347.56 2465.38,3350.93 2456.23,3351.25"/>
    </edge>
    <edge id=":belfast_13" function="internal">
        <lane id=":belfast_13_0" index="0" speed="10.00" length="37.28" shape="2487.92,3336.30 2485.86,3342.10 2476.80,3346.92 2465.40,3349.79 2456.29,3349.75"/>
    </edge>
    <edge id=":belfast_14" function="internal">
        <lane id=":belfast_14_0" index="0" speed="7.58" length="24.26" shape="2487.92,3336.30 2488.03,3341.04 2483.40,3342.31 2476.55,3340.65 2470.03,3336.62"/>
    </edge>
    <edge id=":belfast_15" function="internal">
        <lane id=":belfast_15_0" index="0" speed="6.45" length="17.70" shape="2487.92,3336.30 2486.99,3338.41 2482.43,3338.25 2476.79,3336.50 2472.63,3333.83"/>
    </edge>
    <edge id=":belfast_16" function="internal">
        <lane id=":belfast_16_0" index="0" speed="6.87" length="19.07" shape="2474.15,3332.21 2480.35,3338.39 2484.26,3341.28 2485.88,3340.86 2485.21,3337.14"/>
    </edge>
    <edge id=":belfast_17" function="internal">
        <lane id=":belfast_17_0" index="0" speed="8.30" length="28.10" shape="2474.15,3332.21 2482.83,3340.66 2488.31,3344.08 2490.57,3342.45 2489.63,3335.77"/>
    </edge>
    <edge id=":belfast_18" function="internal">
        <lane id=":belfast_18_0" index="0" speed="9.47" length="33.48" shape="2474.15,3332.21 2483.79,3341.17 2490.57,3344.44 2494.51,3342.03 2495.60,3333.93"/>
    </edge>
    <edge id=":belfast_19" function="internal">
        <lane id=":belfast_19_0" index="0" speed="10.00" length="39.57" shape="2474.15,3332.21 2484.06,3343.22 2491.46,3352.77 2495.14,3360.09 2493.86,3364.39"/>
    </edge>
    <edge id=":belfast_20" function="internal">
        <lane id=":belfast_20_0" index="0" speed="8.75" length="30.23" shape="2474.15,3332.21 2475.06,3338.16 2470.60,3344.90 2463.44,3350.05 2456.23,3351.25"/>
    </edge>
    <edge id=":belfast_21" function="internal">
        <lane id=":belfast_21_0" index="0" speed="8.52" length="28.98" shape="2474.15,3332.21 2474.90,3337.84 2470.37,3344.12 2463.27,3348.83 2456.29,3349.75"/>
    </edge>
    <edge id=":belfast_22" function="internal">
        <lane id=":belfast_22_0" index="0" speed="4.60" length="8.52" shape="2474.15,3332.21 2474.83,3334.25 2473.88,3336.18 2472.04,3337.23 2470.03,3336.62"/>
    </edge>
    <edge id=":belfast_23" function="internal">
        <lane id=":belfast_23_0" index="0" speed="3.27" length="3.26" shape="2474.15,3332.21 2474.38,3333.18 2474.21,3333.78 2473.62,3334.00 2472.63,3333.83"/>
    </edge>
    <edge id=":belfast_24" function="internal">
        <lane id=":belfast_24_0" index="0" speed="4.55" length="8.19" shape="2472.00,3334.51 2474.31,3336.50 2475.18,3337.05 2474.62,3336.16 2472.63,3333.83"/>
    </edge>
    <edge id=":belfast_25" function="internal">
        <lane id=":belfast_25_0" index="0" speed="7.46" length="22.06" shape="2472.00,3334.51 2479.46,3340.62 2484.14,3343.10 2486.06,3341.94 2485.21,3337.14"/>
    </edge>
    <edge id=":belfast_26" function="internal">