<?xml version="1.0" encoding="UTF-8"?>

<!-- generated on 2025-02-19 12:49:16 by Eclipse SUMO netconvert Version 1.18.0
<configuration xmlns:xsi="http://www.w3.org/2001/XMLSchema-instance" xsi:noNamespaceSchemaLocation="http://sumo.dlr.de/xsd/netconvertConfiguration.xsd">

    <input>
        <node-files value="nod.xml"/>
        <edge-files value="edge_xmls/08084.xml"/>
    </input>

    <output>
        <output-file value="networks/08084.net.xml"/>
    </output>

</configuration>
-->

<net version="1.16" junctionCornerDetail="5" limitTurnSpeed="5.50" xmlns:xsi="http://www.w3.org/2001/XMLSchema-instance" xsi:noNamespaceSchemaLocation="http://sumo.dlr.de/xsd/net_file.xsd">

    <location netOffset="-682.00,4368.00" convBoundary="0.00,0.00,2498.00,3881.00" origBoundary="682.00,-4368.00,3180.00,-487.00" projParameter="!"/>

    <edge id=":antrim_0" function="internal">
        <lane id=":antrim_0_0" index="0" speed="5.36" length="11.89" shape="2284.62,3461.06 2285.22,3465.32 2285.79,3466.67 2286.34,3465.12 2286.87,3460.68"/>
    </edge>
    <edge id=":antrim_1" function="internal">
        <lane id=":antrim_1_0" index="0" speed="9.18" length="32.13" shape="2284.62,3461.06 2282.85,3468.76 2276.88,3472.03 2268.88,3471.01 2261.05,3465.87"/>
    </edge>
    <edge id=":antrim_2" function="internal">
        <lane id=":antrim_2_0" index="0" speed="9.04" length="32.56" shape="2284.62,3461.06 2282.62,3467.93 2276.21,3469.19 2267.95,3465.96 2260.44,3459.37"/>
    </edge>
    <edge id=":antrim_3" function="internal">
        <lane id=":antrim_3_0" index="0" speed="8.39" length="27.80" shape="2284.62,3461.06 2281.91,3465.06 2274.75,3465.57 2266.49,3463.40 2260.49,3459.33"/>
    </edge>
    <edge id=":antrim_4" function="internal">
        <lane id=":antrim_4_0" index="0" speed="8.90" length="31.80" shape="2284.62,3461.06 2282.65,3467.70 2276.36,3468.80 2268.31,3465.48 2261.08,3458.90"/>
    </edge>
    <edge id=":antrim_5" function="internal">
        <lane id=":antrim_5_0" index="0" speed="8.23" length="28.11" shape="2284.62,3461.06 2282.81,3466.58 2277.20,3466.79 2270.22,3462.99 2264.35,3456.51"/>
    </edge>
    <edge id=":antrim_6" function="internal">
        <lane id=":antrim_6_0" index="0" speed="7.36" length="23.49" shape="2284.62,3461.06 2283.18,3465.07 2278.74,3463.90 2273.42,3459.26 2269.34,3452.88"/>
    </edge>
    <edge id=":antrim_7" function="internal">
        <lane id=":antrim_7_0" index="0" speed="6.88" length="20.96" shape="2284.62,3461.06 2283.48,3464.32 2279.88,3462.49 2275.63,3457.52 2272.53,3451.31"/>
    </edge>
    <edge id=":antrim_8" function="internal">
        <lane id=":antrim_8_0" index="0" speed="4.25" length="6.99" shape="2284.62,3461.06 2284.05,3462.73 2282.46,3463.52 2280.74,3463.29 2279.74,3461.89"/>
    </edge>
    <edge id=":antrim_9" function="internal">
        <lane id=":antrim_9_0" index="0" speed="3.65" length="4.68" shape="2284.62,3461.06 2284.03,3462.38 2283.31,3462.91 2282.45,3462.65 2281.46,3461.60"/>
    </edge>
    <edge id=":antrim_10" function="internal">
        <lane id=":antrim_10_0" index="0" speed="4.56" length="8.28" shape="2263.66,3457.02 2265.57,3459.44 2266.32,3460.16 2265.92,3459.18 2264.35,3456.51"/>
    </edge>
    <edge id=":antrim_11" function="internal">
        <lane id=":antrim_11_0" index="0" speed="7.95" length="27.99" shape="2263.66,3457.02 2270.08,3464.72 2273.16,3466.60 2272.91,3462.65 2269.34,3452.88"/>
    </edge>
    <edge id=":antrim_12" function="internal">
        <lane id=":antrim_12_0" index="0" speed="8.62" length="32.17" shape="2263.66,3457.02 2271.00,3465.57 2274.92,3467.47 2275.43,3462.72 2272.53,3451.31"/>
    </edge>
    <edge id=":antrim_13" function="internal">
        <lane id=":antrim_13_0" index="0" speed="8.63" length="30.54" shape="2263.66,3457.02 2272.04,3467.01 2277.51,3471.15 2280.08,3469.44 2279.74,3461.89"/>
    </edge>
    <edge id=":antrim_14" function="internal">
        <lane id=":antrim_14_0" index="0" speed="8.94" length="32.06" shape="2263.66,3457.02 2272.33,3467.22 2278.18,3471.39 2281.22,3469.51 2281.46,3461.60"/>
    </edge>
    <edge id=":antrim_15" function="internal">
        <lane id=":antrim_15_0" index="0" speed="9.91" length="36.53" shape="2263.66,3457.02 2273.03,3467.64 2280.02,3471.79 2284.63,3469.47 2286.87,3460.68"/>
    </edge>
    <edge id=":antrim_16" function="internal">
        <lane id=":antrim_16_0" index="0" speed="5.47" length="12.76" shape="2263.66,3457.02 2265.07,3460.64 2264.87,3464.35 2263.41,3466.61 2261.05,3465.87"/>
    </edge>
    <edge id=":antrim_17" function="internal">
        <lane id=":antrim_17_0" index="0" speed="3.48" length="3.99" shape="2263.66,3457.02 2260.44,3459.37"/>
    </edge>
    <edge id=":antrim_18" function="internal">
        <lane id=":antrim_18_0" index="0" speed="3.46" length="3.93" shape="2263.66,3457.02 2260.49,3459.33"/>
    </edge>
    <edge id=":antrim_19" function="internal">
        <lane id=":antrim_19_0" index="0" speed="3.65" length="4.67" shape="2263.66,3457.02 2263.72,3458.46 2263.31,3459.25 2262.43,3459.40 2261.08,3458.90"/>
    </edge>
    <edge id=":antrim_20" function="internal">
        <lane id=":antrim_20_0" index="0" speed="5.57" length="13.36" shape="2263.03,3457.48 2266.19,3461.31 2267.47,3462.42 2266.86,3460.82 2264.35,3456.51"/>
    </edge>
    <edge id=":antrim_21" function="internal">
        <lane id=":antrim_21_0" index="0" speed="8.12" length="29.07" shape="2263.03,3457.48 2269.85,3465.29 2273.17,3467.13 2273.00,3462.99 2269.34,3452.88"/>
    </edge>
    <edge id=":antrim_22" function="internal">
        <lane id=":antrim_22_0" index="0" speed="8.74" length="32.91" shape="2263.03,3457.48 2270.70,3466.01 2274.84,3467.83 2275.45,3462.93 2272.53,3451.31"/>
    </edge>
    <edge id=":antrim_23" function="internal">
        <lane id=":antrim_23_0" index="0" speed="8.73" length="31.04" shape="2263.03,3457.48 2271.70,3467.37 2277.38,3471.40 2280.05,3469.57 2279.74,3461.89"/>
    </edge>
    <edge id=":antrim_24" function="internal">
        <lane id=":antrim_24_0" index="0" speed="9.04" length="32.53" shape="2263.03,3457.48 2271.98,3467.56 2278.03,3471.61 2281.19,3469.62 2281.46,3461.60"/>
    </edge>
    <edge id=":antrim_25" function="internal">
        <lane id=":antrim_25_0" index="0" speed="10.00" length="36.94" shape="2263.03,3457.48 2272.67,3467.95 2279.85,3471.97 2284.59,3469.55 2286.87,3460.68"/>
    </edge>
    <edge id=":antrim_26" function="internal">
        <lane id=":antrim_26_0" index="0" speed="5.29" length="11.90" shape="2263.03,3457.48 2264.45,3460.86 2264.41,3464.37 2263.20,3466.53 2261.05,3465.87"/>
    </edge>
    <edge id=":antrim_27" function="internal">
        <lane id=":antrim_27_0" index="0" speed="3.22" length="3.14" shape="2263.03,3457.48 2260.49,3459.33"/>
    </edge>
    <edge id=":antrim_28" function="internal">
        <lane id=":antrim_28_0" index="0" speed="10.00" length="119.22" shape="2263.03,3457.48 2235.11,3422.55 2225.48,3411.14 2234.13,3423.26 2261.08,3458.90"/>
    </edge>
    <edge id=":antrim_29" function="internal">
        <lane id=":antrim_29_0" index="0" speed="3.65" length="4.68" shape="2263.03,3457.48 2263.09,3458.92 2262.67,3459.72 2261.79,3459.87 2260.44,3459.37"/>
    </edge>
    <edge id=":antrim_30" function="internal">
        <lane id=":antrim_30_0" index="0" speed="2.73" length="1.52" shape="2264.55,3456.37 2264.17,3455.95 2264.01,3455.83 2264.07,3456.02 2264.35,3456.51"/>
    </edge>
    <edge id=":antrim_31" function="internal">
        <lane id=":antrim_31_0" index="0" speed="6.86" length="19.89" shape="2264.55,3456.37 2269.39,3461.50 2271.81,3462.63 2271.79,3459.76 2269.34,3452.88"/>
    </edge>
    <edge id=":antrim_32" function="internal">
        <lane id=":antrim_32_0" index="0" speed="7.81" length="25.48" shape="2264.55,3456.37 2270.72,3462.73 2274.11,3464.00 2274.71,3460.20 2272.53,3451.31"/>
    </edge>
    <edge id=":antrim_33" function="internal">
        <lane id=":antrim_33_0" index="0" speed="8.03" length="25.59" shape="2264.55,3456.37 2272.18,3464.58 2277.26,3468.24 2279.78,3467.34 2279.74,3461.89"/>
    </edge>
    <edge id=":antrim_34" function="internal">
        <lane id=":antrim_34_0" index="0" speed="8.42" length="27.55" shape="2264.55,3456.37 2272.62,3464.95 2278.13,3468.67 2281.07,3467.56 2281.46,3461.60"/>
    </edge>
    <edge id=":antrim_35" function="internal">
        <lane id=":antrim_35_0" index="0" speed="10.00" length="37.65" shape="2261.95,3458.26 2272.06,3468.46 2279.58,3472.26 2284.52,3469.67 2286.87,3460.68"/>
    </edge>
    <edge id=":antrim_36" function="internal">
        <lane id=":antrim_36_0" index="0" speed="5.00" length="10.53" shape="2261.95,3458.26 2263.40,3461.25 2263.66,3464.42 2262.84,3466.42 2261.05,3465.87"/>
    </edge>
    <edge id=":antrim_37" function="internal">
        <lane id=":antrim_37_0" index="0" speed="10.00" length="55.11" shape="2261.95,3458.26 2248.46,3442.59 2243.71,3437.54 2247.71,3443.14 2260.44,3459.37"/>
    </edge>
    <edge id=":antrim_38" function="internal">
        <lane id=":antrim_38_0" index="0" speed="6.58" length="20.01" shape="2261.95,3458.26 2257.04,3452.59 2255.25,3450.80 2256.60,3452.91 2261.08,3458.90"/>
    </edge>
    <edge id=":antrim_39" function="internal">
        <lane id=":antrim_39_0" index="0" speed="3.09" length="2.65" shape="2261.95,3458.26 2261.99,3459.08 2261.75,3459.53 2261.25,3459.61 2260.49,3459.33"/>
    </edge>
    <edge id=":antrim_40" function="internal">
        <lane id=":antrim_40_0" index="0" speed="7.54" length="23.36" shape="2269.22,3480.95 2272.66,3481.50 2272.45,3479.17 2268.58,3473.96 2261.05,3465.87"/>
    </edge>
    <edge id=":antrim_41" function="internal">
        <lane id=":antrim_41_0" index="0" speed="8.62" length="29.76" shape="2269.22,3480.95 2273.14,3481.29 2272.99,3477.80 2268.75,3470.50 2260.44,3459.37"/>
    </edge>
    <edge id=":antrim_42" function="internal">
        <lane id=":antrim_42_0" index="0" speed="8.63" length="29.79" shape="2269.22,3480.95 2273.15,3481.29 2273.01,3477.80 2268.79,3470.48 2260.49,3459.33"/>
    </edge>
    <edge id=":antrim_43" function="internal">
        <lane id=":antrim_43_0" index="0" speed="8.70" length="30.07" shape="2269.22,3480.95 2273.26,3481.29 2273.25,3477.73 2269.19,3470.27 2261.08,3458.90"/>
    </edge>
    <edge id=":antrim_44" function="internal">
        <lane id=":antrim_44_0" index="0" speed="9.13" length="31.79" shape="2269.22,3480.95 2273.79,3481.26 2274.50,3477.29 2271.36,3469.04 2264.35,3456.51"/>
    </edge>
    <edge id=":antrim_45" function="internal">
        <lane id=":antrim_45_0" index="0" speed="9.87" length="34.88" shape="2269.22,3480.95 2274.44,3481.16 2276.19,3476.56 2274.50,3467.13 2269.34,3452.88"/>
    </edge>
    <edge id=":antrim_46" function="internal">
        <lane id=":antrim_46_0" index="0" speed="10.00" length="36.45" shape="2269.22,3480.95 2274.78,3481.12 2277.18,3476.24 2276.43,3466.30 2272.53,3451.31"/>
    </edge>
    <edge id=":antrim_47" function="internal">
        <lane id=":antrim_47_0" index="0" speed="9.43" length="28.29" shape="2269.22,3480.95 2275.40,3481.84 2279.22,3478.97 2280.66,3472.32 2279.74,3461.89"/>
    </edge>
    <edge id=":antrim_48" function="internal">
        <lane id=":antrim_48_0" index="0" speed="9.72" length="29.11" shape="2269.22,3480.95 2275.58,3481.85 2279.74,3478.93 2281.70,3472.18 2281.46,3461.60"/>
    </edge>
    <edge id=":antrim_49" function="internal">
        <lane id=":antrim_49_0" index="0" speed="10.00" length="32.14" shape="2269.22,3480.95 2276.09,3481.86 2281.32,3478.78 2284.91,3471.72 2286.87,3460.68"/>
    </edge>
    <edge id=":antrim_50" function="internal">
        <lane id=":antrim_50_0" index="0" speed="10.00" length="31.94" shape="2279.48,3490.93 2279.81,3488.51 2276.84,3483.53 2270.59,3475.98 2261.05,3465.87"/>
    </edge>
    <edge id=":antrim_51" function="internal">
        <lane id=":antrim_51_0" index="0" speed="10.00" length="37.62" shape="2279.48,3490.93 2279.84,3488.06 2276.78,3481.85 2270.31,3472.28 2260.44,3459.37"/>
    </edge>
    <edge id=":antrim_52" function="internal">
        <lane id=":antrim_52_0" index="0" speed="10.00" length="37.63" shape="2279.48,3490.93 2279.84,3488.06 2276.79,3481.84 2270.34,3472.26 2260.49,3459.33"/>
    </edge>
    <edge id=":antrim_53" function="internal">
        <lane id=":antrim_53_0" index="0" speed="10.00" length="37.70" shape="2279.48,3490.93 2279.89,3488.03 2276.95,3481.72 2270.68,3472.01 2261.08,3458.90"/>
    </edge>
    <edge id=":antrim_54" function="internal">
        <lane id=":antrim_54_0" index="0" speed="10.00" length="38.35" shape="2279.48,3490.93 2280.15,3487.85 2277.85,3481.08 2272.59,3470.64 2264.35,3456.51"/>
    </edge>
    <edge id=":antrim_55" function="internal">
        <lane id=":antrim_55_0" index="0" speed="10.00" length="40.08" shape="2279.48,3490.93 2280.54,3487.57 2279.20,3480.11 2275.47,3468.55 2269.34,3452.88"/>
    </edge>
    <edge id=":antrim_56" function="internal">
        <lane id=":antrim_56_0" index="0" speed="10.00" length="40.88" shape="2279.48,3490.93 2280.78,3487.45 2280.05,3479.69 2277.30,3467.64 2272.53,3451.31"/>
    </edge>
    <edge id=":antrim_57" function="internal">
        <lane id=":antrim_57_0" index="0" speed="10.00" length="29.73" shape="2279.48,3490.93 2281.28,3488.08 2281.92,3482.29 2281.41,3473.56 2279.74,3461.89"/>
    </edge>
    <edge id=":antrim_58" function="internal">
        <lane id=":antrim_58_0" index="0" speed="10.00" length="30.04" shape="2279.48,3490.93 2281.41,3488.05 2282.39,3482.20 2282.40,3473.39 2281.46,3461.60"/>
    </edge>
    <edge id=":antrim_59" function="internal">
        <lane id=":antrim_59_0" index="0" speed="10.00" length="31.62" shape="2279.48,3490.93 2281.82,3487.95 2283.83,3481.92 2285.51,3472.83 2286.87,3460.68"/>
    </edge>
    <edge id=":athlone_0" function="internal">
        <lane id=":athlone_0_0" index="0" speed="5.60" length="11.85" shape="1266.55,1983.18 1263.87,1980.09 1262.24,1979.40 1261.65,1981.13 1262.11,1985.27"/>
    </edge>
    <edge id=":athlone_1" function="internal">
        <lane id=":athlone_1_0" index="0" speed="7.03" length="16.63" shape="1266.55,1983.18 1261.87,1977.21 1258.41,1973.50 1256.16,1972.06 1255.15,1972.87"/>
    </edge>
    <edge id=":athlone_2" function="internal">
        <lane id=":athlone_2_0" index="0" speed="9.08" length="22.24" shape="1266.55,1983.18 1260.78,1976.07 1256.09,1971.69 1252.51,1970.04 1250.01,1971.13"/>
    </edge>
    <edge id=":athlone_3" function="internal">
        <lane id=":athlone_3_0" index="0" speed="10.00" length="26.29" shape="1266.55,1983.18 1260.10,1975.19 1254.69,1969.89 1250.31,1967.29 1246.95,1967.38"/>
    </edge>
    <edge id=":athlone_4" function="internal">
        <lane id=":athlone_4_0" index="0" speed="10.00" length="27.94" shape="1266.55,1983.18 1262.26,1976.58 1258.41,1969.59 1255.08,1963.39 1252.33,1959.16"/>
    </edge>
    <edge id=":athlone_5" function="internal">
        <lane id=":athlone_5_0" index="0" speed="10.00" length="55.10" shape="1268.95,1981.05 1264.59,1969.99 1260.86,1953.09 1258.33,1936.76 1257.60,1927.40"/>
    </edge>
    <edge id=":athlone_6" function="internal">
        <lane id=":athlone_6_0" index="0" speed="10.00" length="45.08" shape="1268.95,1981.05 1263.09,1970.95 1260.31,1960.47 1260.59,1949.62 1263.94,1938.40"/>
    </edge>
    <edge id=":athlone_7" function="internal">
        <lane id=":athlone_7_0" index="0" speed="10.00" length="50.30" shape="1268.95,1981.05 1263.67,1970.63 1262.78,1959.46 1266.29,1947.51 1274.19,1934.81"/>
    </edge>
    <edge id=":athlone_8" function="internal">
        <lane id=":athlone_8_0" index="0" speed="9.02" length="25.38" shape="1268.95,1981.05 1265.64,1974.96 1263.33,1967.54 1263.10,1961.12 1266.02,1958.03"/>
    </edge>
    <edge id=":athlone_9" function="internal">
        <lane id=":athlone_9_0" index="0" speed="4.41" length="7.63" shape="1268.95,1981.05 1268.63,1978.72 1269.17,1977.36 1270.58,1976.98 1272.86,1977.58"/>
    </edge>
    <edge id=":athlone_10" function="internal">
        <lane id=":athlone_10_0" index="0" speed="2.99" length="2.16" shape="1266.22,1958.53 1266.92,1958.21 1267.12,1958.01 1266.82,1957.96 1266.02,1958.03"/>
    </edge>
    <edge id=":athlone_11" function="internal">
        <lane id=":athlone_11_0" index="0" speed="8.99" length="22.85" shape="1266.22,1958.53 1263.81,1960.88 1264.12,1964.84 1267.13,1970.41 1272.86,1977.58"/>
    </edge>
    <edge id=":athlone_12" function="internal">
        <lane id=":athlone_12_0" index="0" speed="10.00" length="28.68" shape="1266.22,1958.53 1262.81,1961.50 1260.99,1966.94 1260.76,1974.86 1262.11,1985.27"/>
    </edge>
    <edge id=":athlone_13" function="internal">
        <lane id=":athlone_13_0" index="0" speed="10.00" length="18.88" shape="1266.22,1958.53 1262.22,1960.79 1259.04,1963.93 1256.68,1967.96 1255.15,1972.87"/>
    </edge>
    <edge id=":athlone_14" function="internal">
        <lane id=":athlone_14_0" index="0" speed="10.00" length="20.65" shape="1266.22,1958.53 1262.18,1960.75 1257.55,1964.07 1253.21,1967.77 1250.01,1971.13"/>
    </edge>
    <edge id=":athlone_15" function="internal">
        <lane id=":athlone_15_0" index="0" speed="10.00" length="21.21" shape="1266.22,1958.53 1246.95,1967.38"/>
    </edge>
    <edge id=":athlone_16" function="internal">
        <lane id=":athlone_16_0" index="0" speed="9.25" length="14.67" shape="1266.22,1958.53 1261.35,1960.22 1257.41,1960.88 1254.40,1960.53 1252.33,1959.16"/>
    </edge>
    <edge id=":athlone_17" function="internal">
        <lane id=":athlone_17_0" index="0" speed="10.00" length="33.52" shape="1266.22,1958.53 1262.66,1955.77 1259.73,1947.05 1257.89,1936.29 1257.60,1927.40"/>
    </edge>
    <edge id=":athlone_18" function="internal">
        <lane id=":athlone_18_0" index="0" speed="8.01" length="22.86" shape="1266.22,1958.53 1262.86,1957.34 1261.74,1951.75 1262.30,1944.52 1263.94,1938.40"/>
    </edge>
    <edge id=":athlone_19" function="internal">
        <lane id=":athlone_19_0" index="0" speed="8.33" length="27.88" shape="1266.22,1958.53 1263.56,1957.06 1265.46,1950.31 1269.73,1941.74 1274.19,1934.81"/>
    </edge>
    <edge id=":athlone_20" function="internal">
        <lane id=":athlone_20_0" index="0" speed="8.50" length="25.93" shape="1276.73,1936.76 1269.65,1946.39 1265.51,1953.15 1264.30,1957.03 1266.02,1958.03"/>
    </edge>
    <edge id=":athlone_21" function="internal">
        <lane id=":athlone_21_0" index="0" speed="10.00" length="44.85" shape="1276.73,1936.76 1269.49,1948.38 1266.43,1959.05 1267.56,1968.79 1272.86,1977.58"/>
    </edge>
    <edge id=":athlone_22" function="internal">
        <lane id=":athlone_22_0" index="0" speed="10.00" length="52.16" shape="1276.73,1936.76 1268.68,1949.04 1263.56,1961.21 1261.37,1973.29 1262.11,1985.27"/>
    </edge>
    <edge id=":athlone_23" function="internal">
        <lane id=":athlone_23_0" index="0" speed="10.00" length="42.12" shape="1276.73,1936.76 1272.21,1943.39 1265.17,1954.47 1258.52,1965.72 1255.15,1972.87"/>
    </edge>
    <edge id=":athlone_24" function="internal">
        <lane id=":athlone_24_0" index="0" speed="10.00" length="43.53" shape="1276.73,1936.76 1250.01,1971.13"/>
    </edge>
    <edge id=":athlone_25" function="internal">
        <lane id=":athlone_25_0" index="0" speed="10.00" length="42.76" shape="1276.73,1936.76 1271.41,1942.90 1262.37,1952.71 1253.06,1962.20 1246.95,1967.38"/>
    </edge>
    <edge id=":athlone_26" function="internal">
        <lane id=":athlone_26_0" index="0" speed="10.00" length="33.36" shape="1276.73,1936.76 1270.83,1943.48 1263.05,1951.26 1256.01,1957.39 1252.33,1959.16"/>
    </edge>
    <edge id=":athlone_27" function="internal">
        <lane id=":athlone_27_0" index="0" speed="8.53" length="28.83" shape="1276.73,1936.76 1270.53,1940.91 1264.03,1940.01 1259.10,1935.15 1257.60,1927.40"/>
    </edge>
    <edge id=":athlone_28" function="internal">
        <lane id=":athlone_28_0" index="0" speed="6.42" length="17.59" shape="1276.73,1936.76 1272.49,1940.34 1267.63,1942.18 1264.13,1941.72 1263.94,1938.40"/>
    </edge>
    <edge id=":athlone_29" function="internal">
        <lane id=":athlone_29_0" index="0" speed="3.65" length="4.67" shape="1276.73,1936.76 1275.36,1937.23 1274.48,1937.05 1274.09,1936.25 1274.19,1934.81"/>
    </edge>
    <edge id=":athlone_30" function="internal">
        <lane id=":athlone_30_0" index="0" speed="8.62" length="26.25" shape="1275.83,1936.07 1269.08,1946.01 1265.19,1952.99 1264.17,1956.99 1266.02,1958.03"/>
    </edge>
    <edge id=":athlone_31" function="internal">
        <lane id=":athlone_31_0" index="0" speed="10.00" length="45.28" shape="1275.83,1936.07 1268.98,1947.98 1266.20,1958.86 1267.49,1968.73 1272.86,1977.58"/>
    </edge>
    <edge id=":athlone_32" function="internal">
        <lane id=":athlone_32_0" index="0" speed="10.00" length="52.45" shape="1275.83,1936.07 1268.17,1948.64 1263.33,1961.02 1261.31,1973.23 1262.11,1985.27"/>
    </edge>
    <edge id=":athlone_33" function="internal">
        <lane id=":athlone_33_0" index="0" speed="10.00" length="42.26" shape="1275.83,1936.07 1271.52,1942.85 1264.78,1954.16 1258.40,1965.63 1255.15,1972.87"/>
    </edge>
    <edge id=":athlone_34" function="internal">
        <lane id=":athlone_34_0" index="0" speed="10.00" length="43.54" shape="1275.83,1936.07 1250.01,1971.13"/>
    </edge>
    <edge id=":athlone_35" function="internal">
        <lane id=":athlone_35_0" index="0" speed="10.00" length="42.66" shape="1275.83,1936.07 1270.72,1942.36 1261.97,1952.40 1252.94,1962.11 1246.95,1967.38"/>
    </edge>
    <edge id=":athlone_36" function="internal">
        <lane id=":athlone_36_0" index="0" speed="10.00" length="33.19" shape="1275.83,1936.07 1270.19,1942.98 1262.71,1951.00 1255.92,1957.32 1252.33,1959.16"/>
    </edge>
    <edge id=":athlone_37" function="internal">
        <lane id=":athlone_37_0" index="0" speed="7.69" length="23.44" shape="1275.83,1936.07 1271.24,1937.97 1265.01,1936.30 1259.63,1932.35 1257.60,1927.40"/>
    </edge>
    <edge id=":athlone_38" function="internal">
        <lane id=":athlone_38_0" index="0" speed="10.00" length="58.42" shape="1275.83,1936.07 1288.49,1918.20 1292.43,1912.03 1287.67,1917.56 1274.19,1934.81"/>
    </edge>
    <edge id=":athlone_39" function="internal">
        <lane id=":athlone_39_0" index="0" speed="6.40" length="17.70" shape="1275.83,1936.07 1273.73,1941.12 1271.05,1943.18 1267.78,1942.28 1263.94,1938.40"/>
    </edge>
    <edge id=":athlone_40" function="internal">
        <lane id=":athlone_40_0" index="0" speed="7.52" length="24.28" shape="1250.39,1928.75 1252.70,1936.96 1254.68,1939.47 1256.31,1936.29 1257.60,1927.40"/>
    </edge>
    <edge id=":athlone_41" function="internal">
        <lane id=":athlone_41_0" index="0" speed="7.63" length="22.06" shape="1250.39,1928.75 1252.88,1937.42 1255.49,1941.71 1258.20,1941.60 1261.01,1937.10"/>
    </edge>
    <edge id=":athlone_42" function="internal">
        <lane id=":athlone_42_0" index="0" speed="10.00" length="37.04" shape="1250.39,1928.75 1254.28,1939.84 1259.55,1944.55 1266.19,1942.87 1274.19,1934.81"/>
    </edge>
    <edge id=":athlone_43" function="internal">
        <lane id=":athlone_43_0" index="0" speed="10.00" length="34.95" shape="1250.39,1928.75 1253.93,1942.00 1257.72,1951.30 1261.75,1956.65 1266.02,1958.03"/>
    </edge>
    <edge id=":athlone_44" function="internal">
        <lane id=":athlone_44_0" index="0" speed="10.00" length="53.81" shape="1250.39,1928.75 1253.89,1937.91 1260.79,1953.59 1268.10,1969.06 1272.86,1977.58"/>
    </edge>
    <edge id=":athlone_45" function="internal">
        <lane id=":athlone_45_0" index="0" speed="10.00" length="57.72" shape="1250.39,1928.75 1262.11,1985.27"/>
    </edge>
    <edge id=":athlone_46" function="internal">
        <lane id=":athlone_46_0" index="0" speed="10.00" length="44.43" shape="1250.39,1928.75 1251.74,1937.01 1253.56,1950.80 1254.99,1964.60 1255.15,1972.87"/>
    </edge>
    <edge id=":athlone_47" function="internal">
        <lane id=":athlone_47_0" index="0" speed="10.00" length="43.36" shape="1250.39,1928.75 1253.12,1943.64 1253.96,1955.67 1252.93,1964.83 1250.01,1971.13"/>
    </edge>
    <edge id=":athlone_48" function="internal">
        <lane id=":athlone_48_0" index="0" speed="10.00" length="40.84" shape="1250.39,1928.75 1252.96,1943.58 1253.25,1954.96 1251.25,1962.90 1246.95,1967.38"/>
    </edge>
    <edge id=":athlone_49" function="internal">
        <lane id=":athlone_49_0" index="0" speed="8.69" length="30.94" shape="1250.39,1928.75 1251.92,1937.64 1253.18,1948.49 1253.53,1957.07 1252.33,1959.16"/>
    </edge>
    <edge id=":athlone_50" function="internal">
        <lane id=":athlone_50_0" index="0" speed="9.07" length="29.47" shape="1254.43,1956.69 1255.18,1952.57 1256.22,1942.70 1257.16,1932.51 1257.60,1927.40"/>
    </edge>
    <edge id=":athlone_51" function="internal">
        <lane id=":athlone_51_0" index="0" speed="8.31" length="20.79" shape="1254.43,1956.69 1254.39,1954.93 1255.47,1951.09 1257.68,1945.14 1261.01,1937.10"/>
    </edge>
    <edge id=":athlone_52" function="internal">
        <lane id=":athlone_52_0" index="0" speed="10.00" length="29.73" shape="1254.43,1956.69 1256.23,1955.98 1260.12,1952.10 1266.11,1945.05 1274.19,1934.81"/>
    </edge>
    <edge id=":athlone_53" function="internal">
        <lane id=":athlone_53_0" index="0" speed="9.69" length="12.01" shape="1254.43,1956.69 1255.99,1957.75 1258.44,1958.33 1261.78,1958.42 1266.02,1958.03"/>
    </edge>
    <edge id=":athlone_54" function="internal">
        <lane id=":athlone_54_0" index="0" speed="10.00" length="27.86" shape="1254.43,1956.69 1272.86,1977.58"/>
    </edge>
    <edge id=":athlone_55" function="internal">
        <lane id=":athlone_55_0" index="0" speed="10.00" length="29.70" shape="1254.43,1956.69 1256.87,1962.07 1259.15,1970.56 1260.99,1979.26 1262.11,1985.27"/>
    </edge>
    <edge id=":athlone_56" function="internal">
        <lane id=":athlone_56_0" index="0" speed="10.00" length="16.62" shape="1254.43,1956.69 1255.71,1959.15 1256.26,1962.67 1256.07,1967.24 1255.15,1972.87"/>
    </edge>
    <edge id=":athlone_57" function="internal">
        <lane id=":athlone_57_0" index="0" speed="9.17" length="16.13" shape="1254.43,1956.69 1255.52,1959.19 1255.15,1962.44 1253.31,1966.41 1250.01,1971.13"/>
    </edge>
    <edge id=":athlone_58" function="internal">
        <lane id=":athlone_58_0" index="0" speed="7.35" length="13.93" shape="1254.43,1956.69 1254.67,1959.10 1252.92,1962.20 1250.05,1965.22 1246.95,1967.38"/>
    </edge>
    <edge id=":athlone_59" function="internal">
        <lane id=":athlone_59_0" index="0" speed="3.67" length="4.73" shape="1254.43,1956.69 1254.83,1958.09 1254.61,1958.97 1253.78,1959.33 1252.33,1959.16"/>
    </edge>
    <edge id=":athlone_60" function="internal">
        <lane id=":athlone_60_0" index="0" speed="10.00" length="64.48" shape="1256.25,1954.55 1238.85,1938.14 1232.39,1933.44 1236.89,1940.45 1252.33,1959.16"/>
    </edge>
    <edge id=":athlone_61" function="internal">
        <lane id=":athlone_61_0" index="0" speed="8.94" length="27.23" shape="1256.25,1954.55 1255.91,1952.44 1256.02,1947.21 1256.58,1938.86 1257.60,1927.40"/>
    </edge>
    <edge id=":athlone_62" function="internal">
        <lane id=":athlone_62_0" index="0" speed="8.04" length="18.37" shape="1256.25,1954.55 1255.83,1952.76 1256.49,1949.26 1258.21,1944.04 1261.01,1937.10"/>
    </edge>
    <edge id=":athlone_63" function="internal">
        <lane id=":athlone_63_0" index="0" speed="10.00" length="26.90" shape="1256.25,1954.55 1257.95,1953.88 1261.51,1950.36 1266.92,1944.01 1274.19,1934.81"/>
    </edge>
    <edge id=":athlone_64" function="internal">
        <lane id=":athlone_64_0" index="0" speed="9.81" length="10.74" shape="1256.25,1954.55 1258.49,1956.35 1260.86,1957.53 1263.37,1958.09 1266.02,1958.03"/>
    </edge>
    <edge id=":athlone_65" function="internal">
        <lane id=":athlone_65_0" index="0" speed="10.00" length="28.44" shape="1256.25,1954.55 1261.40,1960.56 1266.00,1967.28 1269.87,1973.39 1272.86,1977.58"/>
    </edge>
    <edge id=":athlone_66" function="internal">
        <lane id=":athlone_66_0" index="0" speed="10.00" length="29.84" shape="1254.17,1956.99 1258.31,1963.66 1260.49,1971.90 1261.50,1979.75 1262.11,1985.27"/>
    </edge>
    <edge id=":athlone_67" function="internal">
        <lane id=":athlone_67_0" index="0" speed="10.00" length="16.41" shape="1254.17,1956.99 1255.57,1959.29 1256.20,1962.70 1256.06,1967.23 1255.15,1972.87"/>
    </edge>
    <edge id=":athlone_68" function="internal">
        <lane id=":athlone_68_0" index="0" speed="8.76" length="15.89" shape="1254.17,1956.99 1255.40,1959.32 1255.12,1962.46 1253.33,1966.40 1250.01,1971.13"/>
    </edge>
    <edge id=":athlone_69" function="internal">
        <lane id=":athlone_69_0" index="0" speed="7.07" length="13.59" shape="1254.17,1956.99 1254.53,1959.28 1252.83,1962.30 1249.99,1965.27 1246.95,1967.38"/>
    </edge>
    <edge id=":belfast_0" function="internal">
        <lane id=":belfast_0_0" index="0" speed="10.00" length="53.05" shape="2489.04,3315.21 2493.01,3335.53 2494.08,3350.74 2492.25,3360.82 2487.52,3365.77"/>
    </edge>
    <edge id=":belfast_1" function="internal">
        <lane id=":belfast_1_0" index="0" speed="10.00" length="56.19" shape="2489.04,3315.21 2491.00,3332.00 2488.03,3345.20 2479.59,3352.67 2465.12,3352.27"/>
    </edge>
    <edge id=":belfast_2" function="internal">
        <lane id=":belfast_2_0" index="0" speed="10.00" length="47.72" shape="2489.04,3315.21 2490.11,3329.49 2486.60,3340.98 2478.93,3346.92 2467.50,3344.52"/>
    </edge>
    <edge id=":belfast_3" function="internal">
        <lane id=":belfast_3_0" index="0" speed="10.00" length="47.13" shape="2489.04,3315.21 2488.12,3327.26 2480.54,3334.30 2469.22,3335.51 2457.08,3330.07"/>
    </edge>
    <edge id=":belfast_4" function="internal">