<?xml version="1.0" encoding="UTF-8"?>

<!-- generated on 2025-02-19 12:50:57 by Eclipse SUMO netconvert Version 1.18.0
<configuration xmlns:xsi="http://www.w3.org/2001/XMLSchema-instance" xsi:noNamespaceSchemaLocation="http://sumo.dlr.de/xsd/netconvertConfiguration.xsd">

    <input>
        <node-files value="nod.xml"/>
        <edge-files value="edge_xmls/08229.xml"/>
    </input>

    <output>
        <output-file value="networks/08229.net.xml"/>
    </output>

</configuration>
-->

<net version="1.16" junctionCornerDetail="5" limitTurnSpeed="5.50" xmlns:xsi="http://www.w3.org/2001/XMLSchema-instance" xsi:noNamespaceSchemaLocation="http://sumo.dlr.de/xsd/net_file.xsd">

    <location netOffset="-682.00,4368.00" convBoundary="0.00,0.00,2498.00,3881.00" origBoundary="682.00,-4368.00,3180.00,-487.00" projParameter="!"/>

    <edge id=":antrim_0" function="internal">
        <lane id=":antrim_0_0" index="0" speed="10.00" length="25.05" shape="2299.04,3482.94 2294.39,3485.52 2287.97,3488.78 2281.45,3491.86 2276.54,3493.88"/>
    </edge>
    <edge id=":antrim_1" function="internal">
        <lane id=":antrim_1_0" index="0" speed="10.00" length="28.20" shape="2299.04,3482.94 2293.63,3484.94 2285.50,3486.73 2277.26,3487.86 2271.48,3487.88"/>
    </edge>
    <edge id=":antrim_2" function="internal">
        <lane id=":antrim_2_0" index="0" speed="10.00" length="53.95" shape="2299.04,3482.94 2291.24,3484.45 2281.11,3480.90 2268.67,3472.28 2253.91,3458.59"/>
    </edge>
    <edge id=":antrim_3" function="internal">
        <lane id=":antrim_3_0" index="0" speed="10.00" length="52.89" shape="2299.04,3482.94 2291.49,3484.17 2282.34,3479.68 2271.58,3469.46 2259.21,3453.50"/>
    </edge>
    <edge id=":antrim_4" function="internal">
        <lane id=":antrim_4_0" index="0" speed="10.00" length="43.49" shape="2299.04,3482.94 2293.01,3480.46 2283.67,3471.84 2274.49,3461.20 2268.94,3452.64"/>
    </edge>
    <edge id=":antrim_5" function="internal">
        <lane id=":antrim_5_0" index="0" speed="10.00" length="47.45" shape="2299.04,3482.94 2290.80,3484.22 2283.20,3478.56 2276.06,3467.50 2269.19,3452.53"/>
    </edge>
    <edge id=":antrim_6" function="internal">
        <lane id=":antrim_6_0" index="0" speed="10.00" length="42.14" shape="2299.04,3482.94 2293.37,3480.35 2285.09,3471.35 2277.16,3460.24 2272.54,3451.34"/>
    </edge>
    <edge id=":antrim_7" function="internal">
        <lane id=":antrim_7_0" index="0" speed="10.00" length="46.17" shape="2299.04,3482.94 2291.01,3484.01 2284.26,3477.82 2278.55,3466.21 2273.63,3451.02"/>
    </edge>
    <edge id=":antrim_8" function="internal">
        <lane id=":antrim_8_0" index="0" speed="10.00" length="45.76" shape="2299.04,3482.94 2291.09,3483.94 2284.67,3477.57 2279.48,3465.78 2275.24,3450.54"/>
    </edge>
    <edge id=":antrim_9" function="internal">
        <lane id=":antrim_9_0" index="0" speed="10.00" length="33.43" shape="2299.04,3482.94 2294.06,3481.50 2289.14,3474.01 2285.35,3464.13 2283.76,3455.58"/>
    </edge>
    <edge id=":antrim_10" function="internal">
        <lane id=":antrim_10_0" index="0" speed="10.00" length="37.75" shape="2299.04,3482.94 2291.65,3484.20 2287.35,3478.44 2285.42,3468.09 2285.12,3455.57"/>
    </edge>
    <edge id=":antrim_11" function="internal">
        <lane id=":antrim_11_0" index="0" speed="10.00" length="37.18" shape="2299.04,3482.94 2291.77,3484.17 2287.98,3478.26 2286.80,3467.85 2287.32,3455.55"/>
    </edge>
    <edge id=":antrim_12" function="internal">
        <lane id=":antrim_12_0" index="0" speed="3.65" length="4.67" shape="2299.04,3482.94 2297.60,3482.88 2296.85,3482.40 2296.77,3481.51 2297.38,3480.20"/>
    </edge>
    <edge id=":antrim_13" function="internal">
        <lane id=":antrim_13_0" index="0" speed="9.07" length="27.51" shape="2293.77,3455.33 2293.05,3467.61 2293.42,3475.85 2294.86,3480.04 2297.38,3480.20"/>
    </edge>
    <edge id=":antrim_14" function="internal">
        <lane id=":antrim_14_0" index="0" speed="10.00" length="44.20" shape="2293.77,3455.33 2291.58,3470.39 2287.98,3481.84 2282.97,3489.67 2276.54,3493.88"/>
    </edge>
    <edge id=":antrim_15" function="internal">
        <lane id=":antrim_15_0" index="0" speed="10.00" length="45.32" shape="2293.77,3455.33 2291.72,3470.05 2287.88,3480.92 2281.41,3487.14 2271.48,3487.88"/>
    </edge>
    <edge id=":antrim_16" function="internal">
        <lane id=":antrim_16_0" index="0" speed="10.00" length="52.22" shape="2293.77,3455.33 2288.91,3467.41 2278.95,3471.21 2266.43,3467.89 2253.91,3458.59"/>
    </edge>
    <edge id=":antrim_17" function="internal">
        <lane id=":antrim_17_0" index="0" speed="9.99" length="37.84" shape="2293.77,3455.33 2288.76,3459.81 2278.11,3460.47 2266.65,3458.10 2259.21,3453.50"/>
    </edge>
    <edge id=":antrim_18" function="internal">
        <lane id=":antrim_18_0" index="0" speed="9.08" length="33.98" shape="2293.77,3455.33 2290.13,3462.54 2282.92,3463.97 2274.92,3460.40 2268.94,3452.64"/>
    </edge>
    <edge id=":antrim_19" function="internal">
        <lane id=":antrim_19_0" index="0" speed="7.85" length="25.00" shape="2290.55,3455.39 2287.33,3458.90 2280.67,3459.14 2273.60,3456.79 2269.19,3452.53"/>
    </edge>
    <edge id=":antrim_20" function="internal">
        <lane id=":antrim_20_0" index="0" speed="7.76" length="25.29" shape="2290.55,3455.39 2287.79,3460.45 2282.36,3460.87 2276.52,3457.54 2272.54,3451.34"/>
    </edge>
    <edge id=":antrim_21" function="internal">
        <lane id=":antrim_21_0" index="0" speed="6.99" length="20.35" shape="2290.55,3455.39 2287.91,3457.95 2282.49,3457.48 2276.87,3454.88 2273.63,3451.02"/>
    </edge>
    <edge id=":antrim_22" function="internal">
        <lane id=":antrim_22_0" index="0" speed="7.20" length="22.09" shape="2290.55,3455.39 2288.12,3459.61 2283.37,3459.56 2278.39,3456.21 2275.24,3450.54"/>
    </edge>
    <edge id=":antrim_23" function="internal">
        <lane id=":antrim_23_0" index="0" speed="4.83" length="9.56" shape="2290.55,3455.39 2289.36,3457.54 2287.06,3458.31 2284.81,3457.67 2283.76,3455.58"/>
    </edge>
    <edge id=":antrim_24" function="internal">
        <lane id=":antrim_24_0" index="0" speed="4.12" length="6.43" shape="2290.55,3455.39 2289.63,3456.44 2287.76,3456.84 2285.93,3456.56 2285.12,3455.57"/>
    </edge>
    <edge id=":antrim_25" function="internal">
        <lane id=":antrim_25_0" index="0" speed="3.66" length="4.72" shape="2290.55,3455.39 2289.80,3456.64 2289.01,3457.09 2288.19,3456.72 2287.32,3455.55"/>
    </edge>
    <edge id=":antrim_26" function="internal">
        <lane id=":antrim_26_0" index="0" speed="5.03" length="10.57" shape="2258.49,3454.19 2261.07,3457.13 2262.06,3458.00 2261.43,3456.79 2259.21,3453.50"/>
    </edge>
    <edge id=":antrim_27" function="internal">
        <lane id=":antrim_27_0" index="0" speed="8.71" length="33.41" shape="2258.49,3454.19 2267.39,3463.79 2272.10,3466.74 2272.62,3463.02 2268.94,3452.64"/>
    </edge>
    <edge id=":antrim_28" function="internal">
        <lane id=":antrim_28_0" index="0" speed="8.76" length="33.72" shape="2258.49,3454.19 2267.47,3463.85 2272.24,3466.80 2272.82,3463.03 2269.19,3452.53"/>
    </edge>
    <edge id=":antrim_29" function="internal">
        <lane id=":antrim_29_0" index="0" speed="9.30" length="37.02" shape="2258.49,3454.19 2268.23,3464.43 2273.82,3467.37 2275.25,3463.01 2272.54,3451.34"/>
    </edge>
    <edge id=":antrim_30" function="internal">
        <lane id=":antrim_30_0" index="0" speed="9.46" length="37.93" shape="2258.49,3454.19 2268.43,3464.56 2274.26,3467.49 2276.00,3462.98 2273.63,3451.02"/>
    </edge>
    <edge id=":antrim_31" function="internal">
        <lane id=":antrim_31_0" index="0" speed="9.69" length="39.22" shape="2258.49,3454.19 2268.69,3464.73 2274.89,3467.63 2277.07,3462.90 2275.24,3450.54"/>
    </edge>
    <edge id=":antrim_32" function="internal">
        <lane id=":antrim_32_0" index="0" speed="9.76" length="36.26" shape="2258.49,3454.19 2268.32,3464.22 2275.28,3467.80 2279.36,3464.93 2280.56,3455.60"/>
    </edge>
    <edge id=":antrim_33" function="internal">
        <lane id=":antrim_33_0" index="0" speed="10.00" length="42.56" shape="2258.49,3454.19 2269.90,3465.74 2278.15,3469.82 2283.22,3466.43 2285.12,3455.57"/>
    </edge>
    <edge id=":antrim_34" function="internal">
        <lane id=":antrim_34_0" index="0" speed="10.00" length="39.11" shape="2258.49,3454.19 2268.84,3464.56 2276.56,3468.25 2281.65,3465.26 2284.11,3455.58"/>
    </edge>
    <edge id=":antrim_35" function="internal">
        <lane id=":antrim_35_0" index="0" speed="10.00" length="49.17" shape="2258.49,3454.19 2271.36,3468.09 2282.13,3477.06 2290.81,3481.10 2297.38,3480.20"/>
    </edge>
    <edge id=":antrim_36" function="internal">
        <lane id=":antrim_36_0" index="0" speed="10.00" length="44.10" shape="2258.49,3454.19 2264.26,3463.07 2271.07,3476.10 2276.10,3488.10 2276.54,3493.88"/>
    </edge>
    <edge id=":antrim_37" function="internal">
        <lane id=":antrim_37_0" index="0" speed="9.92" length="37.62" shape="2258.49,3454.19 2263.92,3462.49 2269.73,3474.06 2273.17,3484.12 2271.48,3487.88"/>
    </edge>
    <edge id=":antrim_38" function="internal">
        <lane id=":antrim_38_0" index="0" speed="4.38" length="7.53" shape="2258.49,3454.19 2258.56,3455.77 2257.27,3457.56 2255.44,3458.77 2253.91,3458.59"/>
    </edge>
    <edge id=":antrim_39" function="internal">
        <lane id=":antrim_39_0" index="0" speed="4.03" length="5.84" shape="2258.52,3454.16 2260.06,3455.65 2260.69,3456.03 2260.41,3455.32 2259.21,3453.50"/>
    </edge>
    <edge id=":antrim_40" function="internal">
        <lane id=":antrim_40_0" index="0" speed="8.01" length="27.22" shape="2258.52,3454.16 2266.44,3461.46 2270.81,3463.65 2271.64,3460.71 2268.94,3452.64"/>
    </edge>
    <edge id=":antrim_41" function="internal">
        <lane id=":antrim_41_0" index="0" speed="8.08" length="27.61" shape="2258.52,3454.16 2266.54,3461.54 2270.99,3463.73 2271.87,3460.73 2269.19,3452.53"/>
    </edge>
    <edge id=":antrim_42" function="internal">
        <lane id=":antrim_42_0" index="0" speed="8.79" length="31.86" shape="2258.52,3454.16 2267.60,3462.34 2272.96,3464.59 2274.61,3460.93 2272.54,3451.34"/>
    </edge>
    <edge id=":antrim_43" function="internal">
        <lane id=":antrim_43_0" index="0" speed="8.99" length="33.03" shape="2258.52,3454.16 2267.88,3462.53 2273.52,3464.80 2275.43,3460.96 2273.63,3451.02"/>
    </edge>
    <edge id=":antrim_44" function="internal">
        <lane id=":antrim_44_0" index="0" speed="9.28" length="34.67" shape="2258.52,3454.16 2268.25,3462.78 2274.29,3465.06 2276.62,3460.97 2275.24,3450.54"/>
    </edge>
    <edge id=":antrim_45" function="internal">
        <lane id=":antrim_45_0" index="0" speed="9.55" length="33.47" shape="2258.52,3454.16 2268.32,3462.82 2275.25,3465.95 2279.34,3463.55 2280.56,3455.60"/>
        <lane id=":antrim_45_1" index="1" speed="10.00" length="43.16" shape="2256.21,3456.38 2268.48,3467.06 2277.15,3470.49 2282.25,3466.67 2283.76,3455.58"/>
    </edge>
    <edge id=":antrim_47" function="internal">
        <lane id=":antrim_47_0" index="0" speed="10.00" length="44.06" shape="2256.21,3456.38 2268.62,3467.12 2277.57,3470.57 2283.07,3466.72 2285.12,3455.57"/>
    </edge>
    <edge id=":antrim_48" function="internal">
        <lane id=":antrim_48_0" index="0" speed="10.00" length="40.88" shape="2256.21,3456.38 2267.54,3466.08 2275.96,3469.19 2281.48,3465.68 2284.11,3455.58"/>
    </edge>
    <edge id=":antrim_49" function="internal">
        <lane id=":antrim_49_0" index="0" speed="10.00" length="49.75" shape="2256.21,3456.38 2270.05,3469.34 2281.52,3477.63 2290.63,3481.25 2297.38,3480.20"/>
    </edge>
    <edge id=":antrim_50" function="internal">
        <lane id=":antrim_50_0" index="0" speed="10.00" length="43.20" shape="2256.21,3456.38 2262.56,3464.73 2270.16,3477.02 2275.87,3488.36 2276.54,3493.88"/>
    </edge>
    <edge id=":antrim_51" function="internal">
        <lane id=":antrim_51_0" index="0" speed="9.65" length="36.67" shape="2256.21,3456.38 2262.26,3464.17 2268.93,3475.03 2273.06,3484.43 2271.48,3487.88"/>
    </edge>
    <edge id=":antrim_52" function="internal">
        <lane id=":antrim_52_0" index="0" speed="3.65" length="4.67" shape="2256.21,3456.38 2256.47,3457.80 2256.17,3458.64 2255.31,3458.90 2253.91,3458.59"/>
    </edge>
    <edge id=":antrim_53" function="internal">
        <lane id=":antrim_53_0" index="0" speed="7.91" length="28.37" shape="2255.32,3457.23 2263.04,3464.20 2266.26,3465.89 2264.98,3462.33 2259.21,3453.50"/>
    </edge>
    <edge id=":antrim_54" function="internal">
        <lane id=":antrim_54_0" index="0" speed="9.32" length="37.11" shape="2255.32,3457.23 2265.99,3466.40 2271.81,3468.69 2272.80,3464.11 2268.94,3452.64"/>
    </edge>
    <edge id=":antrim_55" function="internal">
        <lane id=":antrim_55_0" index="0" speed="9.36" length="37.34" shape="2255.32,3457.23 2266.04,3466.43 2271.93,3468.71 2272.98,3464.08 2269.19,3452.53"/>
    </edge>
    <edge id=":antrim_56" function="internal">
        <lane id=":antrim_56_0" index="0" speed="9.84" length="39.96" shape="2255.32,3457.23 2266.63,3466.72 2273.27,3468.90 2275.24,3463.77 2272.54,3451.34"/>
    </edge>
    <edge id=":antrim_57" function="internal">
        <lane id=":antrim_57_0" index="0" speed="9.99" length="40.74" shape="2255.32,3457.23 2266.79,3466.79 2273.67,3468.94 2275.95,3463.68 2273.63,3451.02"/>
    </edge>
    <edge id=":antrim_58" function="internal">
        <lane id=":antrim_58_0" index="0" speed="10.00" length="41.88" shape="2255.32,3457.23 2267.02,3466.88 2274.23,3468.98 2276.98,3463.53 2275.24,3450.54"/>
    </edge>
    <edge id=":antrim_59" function="internal">
        <lane id=":antrim_59_0" index="0" speed="10.00" length="38.95" shape="2255.32,3457.23 2266.55,3466.43 2274.50,3469.22 2279.17,3465.61 2280.56,3455.60"/>
    </edge>
    <edge id=":antrim_60" function="internal">
        <lane id=":antrim_60_0" index="0" speed="10.00" length="44.68" shape="2255.32,3457.23 2268.12,3467.66 2277.35,3470.86 2283.02,3466.83 2285.12,3455.57"/>
    </edge>
    <edge id=":antrim_61" function="internal">
        <lane id=":antrim_61_0" index="0" speed="10.00" length="41.59" shape="2255.32,3457.23 2267.03,3466.67 2275.72,3469.54 2281.42,3465.84 2284.11,3455.58"/>
    </edge>
    <edge id=":antrim_62" function="internal">
        <lane id=":antrim_62_0" index="0" speed="10.00" length="50.03" shape="2255.32,3457.23 2269.54,3469.83 2281.29,3477.85 2290.57,3481.31 2297.38,3480.20"/>
    </edge>
    <edge id=":antrim_63" function="internal">
        <lane id=":antrim_63_0" index="0" speed="10.00" length="46.60" shape="2255.32,3457.23 2267.25,3469.35 2276.18,3480.36 2279.99,3488.97 2276.54,3493.88"/>
    </edge>
    <edge id=":antrim_64" function="internal">
        <lane id=":antrim_64_0" index="0" speed="9.56" length="36.37" shape="2255.32,3457.23 2261.60,3464.82 2268.61,3475.40 2273.02,3484.56 2271.48,3487.88"/>
    </edge>
    <edge id=":antrim_65" function="internal">
        <lane id=":antrim_65_0" index="0" speed="10.00" length="70.19" shape="2255.32,3457.23 2236.28,3439.06 2229.69,3433.23 2235.57,3439.74 2253.91,3458.59"/>
    </edge>
    <edge id=":antrim_66" function="internal">
        <lane id=":antrim_66_0" index="0" speed="8.14" length="28.93" shape="2265.13,3476.23 2269.15,3477.61 2268.61,3475.13 2263.53,3468.79 2253.91,3458.59"/>
    </edge>
    <edge id=":antrim_67" function="internal">
        <lane id=":antrim_67_0" index="0" speed="9.03" length="33.72" shape="2265.13,3476.23 2270.68,3477.92 2271.54,3474.69 2267.72,3466.55 2259.21,3453.50"/>
    </edge>
    <edge id=":antrim_68" function="internal">
        <lane id=":antrim_68_0" index="0" speed="9.58" length="34.78" shape="2265.13,3476.23 2271.99,3478.24 2274.91,3474.97 2273.89,3466.44 2268.94,3452.64"/>
    </edge>
    <edge id=":antrim_69" function="internal">
        <lane id=":antrim_69_0" index="0" speed="9.61" length="34.91" shape="2265.13,3476.23 2272.02,3478.24 2275.00,3474.96 2274.06,3466.39 2269.19,3452.53"/>
    </edge>
    <edge id=":antrim_70" function="internal">
        <lane id=":antrim_70_0" index="0" speed="10.00" length="36.49" shape="2265.13,3476.23 2272.41,3478.26 2276.08,3474.78 2276.12,3465.81 2272.54,3451.34"/>
    </edge>
    <edge id=":antrim_71" function="internal">
        <lane id=":antrim_71_0" index="0" speed="10.00" length="36.98" shape="2265.13,3476.23 2272.53,3478.26 2276.42,3474.74 2276.78,3465.66 2273.63,3451.02"/>
    </edge>
    <edge id=":antrim_72" function="internal">
        <lane id=":antrim_72_0" index="0" speed="10.00" length="37.76" shape="2265.13,3476.23 2272.70,3478.27 2276.91,3474.67 2277.76,3465.43 2275.24,3450.54"/>
    </edge>
    <edge id=":antrim_73" function="internal">
        <lane id=":antrim_73_0" index="0" speed="10.00" length="36.48" shape="2265.13,3476.23 2273.50,3478.73 2279.40,3476.12 2282.82,3468.40 2283.76,3455.58"/>
    </edge>
    <edge id=":antrim_74" function="internal">
        <lane id=":antrim_74_0" index="0" speed="10.00" length="37.11" shape="2265.13,3476.23 2273.63,3478.75 2279.79,3476.14 2283.62,3468.42 2285.12,3455.57"/>
    </edge>
    <edge id=":antrim_75" function="internal">
        <lane id=":antrim_75_0" index="0" speed="10.00" length="38.21" shape="2265.13,3476.23 2273.82,3478.78 2280.42,3476.18 2284.92,3468.44 2287.32,3455.55"/>
    </edge>
    <edge id=":antrim_76" function="internal">
        <lane id=":antrim_76_0" index="0" speed="10.00" length="33.85" shape="2265.13,3476.23 2274.95,3480.58 2283.60,3482.69 2291.08,3482.56 2297.38,3480.20"/>
    </edge>
    <edge id=":antrim_77" function="internal">
        <lane id=":antrim_77_0" index="0" speed="8.78" length="27.38" shape="2265.13,3476.23 2272.83,3480.76 2278.86,3485.69 2280.87,3490.31 2276.54,3493.88"/>
    </edge>
    <edge id=":antrim_78" function="internal">
        <lane id=":antrim_78_0" index="0" speed="6.51" length="17.86" shape="2265.13,3476.23 2269.89,3479.69 2273.47,3483.85 2274.46,3487.12 2271.48,3487.88"/>
    </edge>
    <edge id=":antrim_79" function="internal">
        <lane id=":antrim_79_0" index="0" speed="9.46" length="35.15" shape="2272.07,3484.73 2274.39,3483.75 2272.14,3479.07 2265.31,3470.68 2253.91,3458.59"/>
    </edge>
    <edge id=":antrim_80" function="internal">
        <lane id=":antrim_80_0" index="0" speed="10.00" length="37.63" shape="2272.07,3484.73 2275.16,3483.52 2274.04,3477.91 2268.72,3467.90 2259.21,3453.50"/>
    </edge>
    <edge id=":antrim_81" function="internal">
        <lane id=":antrim_81_0" index="0" speed="10.00" length="36.46" shape="2272.07,3484.73 2276.11,3483.53 2276.94,3477.78 2274.54,3467.49 2268.94,3452.64"/>
    </edge>
    <edge id=":antrim_82" function="internal">
        <lane id=":antrim_82_0" index="0" speed="10.00" length="36.54" shape="2272.07,3484.73 2276.14,3483.53 2277.01,3477.76 2274.70,3467.43 2269.19,3452.53"/>
    </edge>
    <edge id=":antrim_83" function="internal">
        <lane id=":antrim_83_0" index="0" speed="10.00" length="37.51" shape="2272.07,3484.73 2276.45,3483.47 2277.99,3477.48 2276.69,3466.77 2272.54,3451.34"/>
    </edge>
    <edge id=":antrim_84" function="internal">
        <lane id=":antrim_84_0" index="0" speed="10.00" length="37.82" shape="2272.07,3484.73 2276.55,3483.46 2278.31,3477.41 2277.33,3466.60 2273.63,3451.02"/>
    </edge>
    <edge id=":antrim_85" function="internal">
        <lane id=":antrim_85_0" index="0" speed="10.00" length="38.34" shape="2272.07,3484.73 2276.70,3483.44 2278.77,3477.30 2278.28,3466.34 2275.24,3450.54"/>
    </edge>
    <edge id=":antrim_86" function="internal">
        <lane id=":antrim_86_0" index="0" speed="10.00" length="35.07" shape="2272.07,3484.73 2277.41,3483.79 2281.14,3478.61 2283.26,3469.21 2283.76,3455.58"/>
    </edge>
    <edge id=":antrim_87" function="internal">
        <lane id=":antrim_87_0" index="0" speed="10.00" length="35.49" shape="2272.07,3484.73 2277.53,3483.79 2281.52,3478.61 2284.05,3469.21 2285.12,3455.57"/>
    </edge>
    <edge id=":antrim_88" function="internal">
        <lane id=":antrim_88_0" index="0" speed="10.00" length="36.26" shape="2272.07,3484.73 2277.71,3483.80 2282.13,3478.62 2285.33,3469.21 2287.32,3455.55"/>
    </edge>
    <edge id=":antrim_89" function="internal">
        <lane id=":antrim_89_0" index="0" speed="10.00" length="25.91" shape="2272.07,3484.73 2277.50,3484.78 2284.97,3483.79 2292.32,3482.14 2297.38,3480.20"/>
    </edge>
    <edge id=":antrim_90" function="internal">
        <lane id=":antrim_90_0" index="0" speed="6.03" length="13.77" shape="2272.07,3484.73 2275.87,3486.35 2278.40,3489.02 2278.88,3491.84 2276.54,3493.88"/>
    </edge>
    <edge id=":antrim_91" function="internal">
        <lane id=":antrim_91_0" index="0" speed="3.65" length="4.67" shape="2272.07,3484.73 2273.10,3485.74 2273.35,3486.60 2272.81,3487.32 2271.48,3487.88"/>
    </edge>
    <edge id=":athlone_0" function="internal">
        <lane id=":athlone_0_0" index="0" speed="10.00" length="53.87" shape="1261.33,1999.48 1260.03,1989.74 1258.07,1972.72 1256.37,1955.69 1255.83,1945.91"/>
    </edge>
    <edge id=":athlone_1" function="internal">
        <lane id=":athlone_1_0" index="0" speed="10.00" length="59.85" shape="1261.33,1999.48 1259.10,1981.28 1259.41,1965.53 1262.29,1952.22 1267.71,1941.36"/>
    </edge>
    <edge id=":athlone_2" function="internal">
        <lane id=":athlone_2_0" index="0" speed="10.00" length="59.45" shape="1261.33,1999.48 1259.15,1981.31 1259.63,1965.67 1262.79,1952.59 1268.61,1942.04"/>
    </edge>
    <edge id=":athlone_3" function="internal">
        <lane id=":athlone_3_0" index="0" speed="10.00" length="57.72" shape="1261.33,1999.48 1259.47,1981.45 1260.99,1966.57 1265.87,1954.83 1274.12,1946.24"/>
    </edge>
    <edge id=":athlone_4" function="internal">
        <lane id=":athlone_4_0" index="0" speed="10.00" length="43.44" shape="1261.33,1999.48 1259.27,1984.74 1259.33,1972.39 1262.62,1964.58 1270.26,1963.46"/>
    </edge>
    <edge id=":athlone_5" function="internal">
        <lane id=":athlone_5_0" index="0" speed="10.00" length="42.96" shape="1261.33,1999.48 1262.02,1987.60 1267.79,1979.59 1276.97,1976.81 1287.90,1980.65"/>
    </edge>
    <edge id=":athlone_6" function="internal">
        <lane id=":athlone_6_0" index="0" speed="8.98" length="32.36" shape="1261.33,1999.48 1262.40,1990.85 1267.70,1985.32 1275.10,1984.10 1282.45,1988.38"/>
    </edge>
    <edge id=":athlone_7" function="internal">
        <lane id=":athlone_7_0" index="0" speed="8.55" length="31.11" shape="1261.33,1999.48 1262.96,1993.07 1269.27,1991.94 1277.29,1995.15 1284.04,2001.76"/>
    </edge>
    <edge id=":athlone_8" function="internal">
        <lane id=":athlone_8_0" index="0" speed="8.45" length="30.86" shape="1261.33,1999.48 1267.83,1992.52 1273.47,1990.77 1278.25,1994.23 1282.18,2002.91"/>
    </edge>
    <edge id=":athlone_9" function="internal">
        <lane id=":athlone_9_0" index="0" speed="10.00" length="63.05" shape="1281.34,2003.48 1276.15,1993.41 1267.40,1974.98 1259.24,1956.41 1255.83,1945.91"/>
    </edge>
    <edge id=":athlone_10" function="internal">
        <lane id=":athlone_10_0" index="0" speed="10.00" length="66.82" shape="1281.34,2003.48 1270.26,1983.65 1264.30,1966.69 1263.45,1952.59 1267.71,1941.36"/>
    </edge>
    <edge id=":athlone_11" function="internal">
        <lane id=":athlone_11_0" index="0" speed="10.00" length="66.24" shape="1281.34,2003.48 1270.31,1983.68 1264.51,1966.84 1263.94,1952.96 1268.61,1942.04"/>
    </edge>
    <edge id=":athlone_12" function="internal">
        <lane id=":athlone_12_0" index="0" speed="10.00" length="63.26" shape="1281.34,2003.48 1270.57,1983.81 1265.78,1967.72 1266.96,1955.19 1274.12,1946.24"/>
    </edge>
    <edge id=":athlone_13" function="internal">
        <lane id=":athlone_13_0" index="0" speed="10.00" length="49.06" shape="1281.34,2003.48 1272.26,1988.43 1265.53,1974.57 1263.95,1965.16 1270.26,1963.46"/>
    </edge>
    <edge id=":athlone_14" function="internal">
        <lane id=":athlone_14_0" index="0" speed="8.73" length="32.28" shape="1281.34,2003.48 1277.82,1994.18 1277.85,1985.12 1281.26,1979.53 1287.90,1980.65"/>
    </edge>
    <edge id=":athlone_15" function="internal">
        <lane id=":athlone_15_0" index="0" speed="6.77" length="20.52" shape="1281.34,2003.48 1278.81,1997.25 1278.10,1990.92 1279.28,1987.09 1282.45,1988.38"/>
    </edge>
    <edge id=":athlone_16" function="internal">
        <lane id=":athlone_16_0" index="0" speed="7.00" length="23.02" shape="1281.34,2003.48 1286.04,2010.69 1287.75,2013.01 1286.46,2010.41 1282.18,2002.91"/>
    </edge>
    <edge id=":athlone_17" function="internal">
        <lane id=":athlone_17_0" index="0" speed="3.65" length="4.67" shape="1281.34,2003.48 1281.37,2002.04 1281.83,2001.27 1282.72,2001.18 1284.04,2001.76"/>
    </edge>
    <edge id=":athlone_18" function="internal">
        <lane id=":athlone_18_0" index="0" speed="3.52" length="4.09" shape="1284.28,2001.61 1283.35,2000.39 1283.00,2000.01 1283.23,2000.47 1284.04,2001.76"/>
    </edge>
    <edge id=":athlone_19" function="internal">
        <lane id=":athlone_19_0" index="0" speed="6.90" length="21.70" shape="1284.28,2001.61 1279.31,1995.20 1277.31,1993.28 1278.26,1995.85 1282.18,2002.91"/>
    </edge>
    <edge id=":athlone_20" function="internal">
        <lane id=":athlone_20_0" index="0" speed="10.00" length="62.65" shape="1284.28,2001.61 1278.51,1991.92 1268.76,1974.12 1259.66,1956.15 1255.83,1945.91"/>
    </edge>
    <edge id=":athlone_21" function="internal">
        <lane id=":athlone_21_0" index="0" speed="10.00" length="66.12" shape="1284.28,2001.61 1271.90,1982.63 1265.01,1966.26 1263.62,1952.50 1267.71,1941.36"/>
    </edge>
    <edge id=":athlone_22" function="internal">
        <lane id=":athlone_22_0" index="0" speed="10.00" length="65.51" shape="1284.28,2001.61 1271.94,1982.65 1265.22,1966.40 1264.11,1952.87 1268.61,1942.04"/>
    </edge>
    <edge id=":athlone_23" function="internal">
        <lane id=":athlone_23_0" index="0" speed="10.00" length="57.03" shape="1284.28,2001.61 1279.78,1990.43 1275.40,1972.53 1272.93,1955.32 1274.12,1946.24"/>
    </edge>
    <edge id=":athlone_24" function="internal">
        <lane id=":athlone_24_0" index="0" speed="10.00" length="41.62" shape="1284.28,2001.61 1279.00,1992.40 1273.02,1979.21 1269.16,1967.68 1270.26,1963.46"/>
    </edge>
    <edge id=":athlone_25" function="internal">
        <lane id=":athlone_25_0" index="0" speed="8.19" length="28.97" shape="1284.28,2001.61 1280.49,1993.41 1279.77,1985.09 1282.21,1979.80 1287.90,1980.65"/>
    </edge>
    <edge id=":athlone_26" function="internal">
        <lane id=":athlone_26_0" index="0" speed="6.54" length="19.51" shape="1284.28,2001.61 1278.86,1998.99 1276.75,1995.91 1277.94,1992.38 1282.45,1988.38"/>
    </edge>
    <edge id=":athlone_27" function="internal">
        <lane id=":athlone_27_0" index="0" speed="7.64" length="25.77" shape="1286.06,1983.26 1278.18,1978.41 1274.95,1977.64 1276.37,1980.96 1282.45,1988.38"/>
    </edge>
    <edge id=":athlone_28" function="internal">
        <lane id=":athlone_28_0" index="0" speed="9.56" length="39.09" shape="1286.06,1983.26 1276.74,1978.20 1273.30,1979.60 1275.73,1987.45 1284.04,2001.76"/>
    </edge>
    <edge id=":athlone_29" function="internal">
        <lane id=":athlone_29_0" index="0" speed="9.80" length="40.49" shape="1286.06,1983.26 1276.38,1978.11 1272.51,1979.66 1274.44,1987.93 1282.18,2002.91"/>
    </edge>
    <edge id=":athlone_30" function="internal">
        <lane id=":athlone_30_0" index="0" speed="10.00" length="49.85" shape="1286.06,1983.26 1272.26,1972.88 1262.63,1963.19 1257.15,1954.20 1255.83,1945.91"/>
    </edge>
    <edge id=":athlone_31" function="internal">
        <lane id=":athlone_31_0" index="0" speed="10.00" length="51.50" shape="1286.06,1983.26 1272.80,1972.45 1265.32,1961.86 1263.63,1951.50 1267.71,1941.36"/>
    </edge>
    <edge id=":athlone_32" function="internal">
        <lane id=":athlone_32_0" index="0" speed="10.00" length="46.00" shape="1286.06,1983.26 1279.60,1975.53 1272.91,1962.94 1268.43,1950.21 1268.61,1942.04"/>
    </edge>
    <edge id=":athlone_33" function="internal">
        <lane id=":athlone_33_0" index="0" speed="10.00" length="48.43" shape="1286.06,1983.26 1274.19,1974.10 1266.83,1964.83 1266.11,1955.52 1274.12,1946.24"/>
    </edge>
    <edge id=":athlone_34" function="internal">
        <lane id=":athlone_34_0" index="0" speed="8.03" length="28.07" shape="1286.06,1983.26 1279.50,1977.84 1272.49,1970.71 1268.32,1964.90 1270.26,1963.46"/>
    </edge>
    <edge id=":athlone_35" function="internal">
        <lane id=":athlone_35_0" index="0" speed="3.65" length="4.67" shape="1286.06,1983.26 1285.54,1981.92 1285.67,1981.03 1286.46,1980.61 1287.90,1980.65"/>
    </edge>
    <edge id=":athlone_36" function="internal">
        <lane id=":athlone_36_0" index="0" speed="6.03" length="14.72" shape="1270.26,1943.30 1267.60,1947.66 1267.35,1949.60 1269.53,1949.13 1274.12,1946.24"/>
    </edge>
    <edge id=":athlone_37" function="internal">
        <lane id=":athlone_37_0" index="0" speed="9.28" length="24.29" shape="1270.26,1943.30 1265.88,1950.85 1264.43,1956.73 1265.88,1960.93 1270.26,1963.46"/>
    </edge>
    <edge id=":athlone_38" function="internal">
        <lane id=":athlone_38_0" index="0" speed="10.00" length="46.31" shape="1270.26,1943.30 1266.86,1952.12 1268.66,1961.28 1275.68,1970.79 1287.90,1980.65"/>
    </edge>
    <edge id=":athlone_39" function="internal">
        <lane id=":athlone_39_0" index="0" speed="10.00" length="50.32" shape="1270.26,1943.30 1266.44,1952.71 1267.19,1963.36 1272.53,1975.25 1282.45,1988.38"/>
    </edge>
    <edge id=":athlone_40" function="internal">
        <lane id=":athlone_40_0" index="0" speed="10.00" length="62.99" shape="1270.26,1943.30 1266.50,1953.60 1267.54,1966.78 1273.38,1982.84 1284.04,2001.76"/>