<?xml version="1.0" encoding="UTF-8"?>

<!-- generated on 2025-02-19 12:51:51 by Eclipse SUMO netconvert Version 1.18.0
<configuration xmlns:xsi="http://www.w3.org/2001/XMLSchema-instance" xsi:noNamespaceSchemaLocation="http://sumo.dlr.de/xsd/netconvertConfiguration.xsd">

    <input>
        <node-files value="nod.xml"/>
        <edge-files value="edge_xmls/08272.xml"/>
    </input>

    <output>
        <output-file value="networks/08272.net.xml"/>
    </output>

</configuration>
-->

<net version="1.16" junctionCornerDetail="5" limitTurnSpeed="5.50" xmlns:xsi="http://www.w3.org/2001/XMLSchema-instance" xsi:noNamespaceSchemaLocation="http://sumo.dlr.de/xsd/net_file.xsd">

    <location netOffset="-682.00,4368.00" convBoundary="0.00,0.00,2498.00,3881.00" origBoundary="682.00,-4368.00,3180.00,-487.00" projParameter="!"/>

    <edge id=":antrim_0" function="internal">
        <lane id=":antrim_0_0" index="0" speed="7.09" length="16.19" shape="2292.66,3468.01 2292.43,3474.74 2293.14,3479.02 2294.79,3480.84 2297.38,3480.20"/>
    </edge>
    <edge id=":antrim_1" function="internal">
        <lane id=":antrim_1_0" index="0" speed="10.00" length="71.85" shape="2292.66,3468.01 2288.83,3478.53 2279.12,3490.10 2263.52,3502.72 2242.02,3516.39"/>
    </edge>
    <edge id=":antrim_2" function="internal">
        <lane id=":antrim_2_0" index="0" speed="10.00" length="71.55" shape="2292.66,3468.01 2288.48,3479.83 2278.11,3490.77 2261.54,3500.83 2238.76,3509.99"/>
    </edge>
    <edge id=":antrim_3" function="internal">
        <lane id=":antrim_3_0" index="0" speed="10.00" length="33.05" shape="2292.66,3468.01 2290.57,3477.47 2286.24,3483.54 2279.71,3485.62 2271.01,3483.10"/>
    </edge>
    <edge id=":antrim_4" function="internal">
        <lane id=":antrim_4_0" index="0" speed="9.02" length="26.36" shape="2292.66,3468.01 2290.20,3474.00 2284.99,3479.24 2278.76,3482.12 2273.23,3481.04"/>
    </edge>
    <edge id=":antrim_5" function="internal">
        <lane id=":antrim_5_0" index="0" speed="9.24" length="31.24" shape="2292.66,3468.01 2288.81,3472.31 2280.71,3472.62 2271.71,3469.96 2265.19,3465.36"/>
    </edge>
    <edge id=":antrim_6" function="internal">
        <lane id=":antrim_6_0" index="0" speed="8.63" length="27.31" shape="2289.42,3468.32 2286.10,3472.04 2279.11,3472.01 2271.35,3469.30 2265.70,3464.98"/>
    </edge>
    <edge id=":antrim_7" function="internal">
        <lane id=":antrim_7_0" index="0" speed="10.00" length="38.74" shape="2289.42,3468.32 2285.86,3475.38 2278.71,3474.06 2270.08,3467.18 2262.05,3457.56"/>
    </edge>
    <edge id=":antrim_8" function="internal">
        <lane id=":antrim_8_0" index="0" speed="9.76" length="37.09" shape="2289.42,3468.32 2286.03,3474.84 2279.31,3473.05 2271.33,3465.87 2264.16,3456.18"/>
    </edge>
    <edge id=":antrim_9" function="internal">
        <lane id=":antrim_9_0" index="0" speed="8.38" length="28.76" shape="2289.42,3468.32 2286.42,3470.55 2280.30,3466.66 2273.71,3459.72 2269.31,3452.81"/>
    </edge>
    <edge id=":antrim_10" function="internal">
        <lane id=":antrim_10_0" index="0" speed="8.66" length="31.93" shape="2289.42,3468.32 2286.85,3473.04 2282.03,3469.56 2276.69,3461.22 2272.54,3451.35"/>
    </edge>
    <edge id=":antrim_11" function="internal">
        <lane id=":antrim_11_0" index="0" speed="7.63" length="26.28" shape="2289.42,3468.32 2287.75,3471.73 2284.94,3467.75 2282.08,3459.67 2280.30,3450.80"/>
    </edge>
    <edge id=":antrim_12" function="internal">
        <lane id=":antrim_12_0" index="0" speed="7.74" length="27.70" shape="2289.42,3468.32 2281.07,3466.46 2277.15,3462.90 2277.65,3457.62 2282.57,3450.63"/>
    </edge>
    <edge id=":antrim_13" function="internal">
        <lane id=":antrim_13_0" index="0" speed="10.00" length="36.71" shape="2283.50,3450.59 2285.80,3465.84 2288.88,3475.86 2292.74,3480.65 2297.38,3480.20"/>
    </edge>
    <edge id=":antrim_14" function="internal">
        <lane id=":antrim_14_0" index="0" speed="10.00" length="82.46" shape="2283.50,3450.59 2282.48,3469.43 2275.23,3486.68 2261.74,3502.33 2242.02,3516.39"/>
    </edge>
    <edge id=":antrim_15" function="internal">
        <lane id=":antrim_15_0" index="0" speed="10.00" length="81.18" shape="2283.50,3450.59 2282.42,3470.34 2274.60,3486.83 2260.05,3500.05 2238.76,3509.99"/>
    </edge>
    <edge id=":antrim_16" function="internal">
        <lane id=":antrim_16_0" index="0" speed="10.00" length="36.74" shape="2283.50,3450.59 2282.86,3459.87 2280.04,3471.41 2275.82,3480.66 2271.01,3483.10"/>
    </edge>
    <edge id=":antrim_17" function="internal">
        <lane id=":antrim_17_0" index="0" speed="9.77" length="34.41" shape="2283.50,3450.59 2283.16,3459.75 2281.02,3470.93 2277.55,3479.55 2273.23,3481.04"/>
    </edge>
    <edge id=":antrim_18" function="internal">
        <lane id=":antrim_18_0" index="0" speed="8.30" length="27.17" shape="2283.50,3450.59 2281.68,3457.05 2276.49,3463.20 2270.23,3466.74 2265.19,3465.36"/>
    </edge>
    <edge id=":antrim_19" function="internal">
        <lane id=":antrim_19_0" index="0" speed="8.17" length="26.45" shape="2283.50,3450.59 2281.71,3456.89 2276.64,3462.90 2270.55,3466.36 2265.70,3464.98"/>
    </edge>
    <edge id=":antrim_20" function="internal">
        <lane id=":antrim_20_0" index="0" speed="8.69" length="30.72" shape="2283.50,3450.59 2281.72,3458.38 2275.97,3462.60 2268.62,3462.56 2262.05,3457.56"/>
    </edge>
    <edge id=":antrim_21" function="internal">
        <lane id=":antrim_21_0" index="0" speed="8.16" length="27.60" shape="2283.50,3450.59 2281.80,3457.50 2276.45,3461.14 2269.80,3460.91 2264.16,3456.18"/>
    </edge>
    <edge id=":antrim_22" function="internal">
        <lane id=":antrim_22_0" index="0" speed="6.83" length="19.95" shape="2283.50,3450.59 2282.07,3455.32 2277.86,3457.44 2272.93,3456.69 2269.31,3452.81"/>
    </edge>
    <edge id=":antrim_23" function="internal">
        <lane id=":antrim_23_0" index="0" speed="5.99" length="15.35" shape="2283.50,3450.59 2282.32,3454.09 2278.95,3455.43 2275.11,3454.54 2272.54,3451.35"/>
    </edge>
    <edge id=":antrim_24" function="internal">
        <lane id=":antrim_24_0" index="0" speed="5.94" length="15.86" shape="2283.50,3450.59 2282.81,3444.68 2282.42,3442.72 2282.34,3444.70 2282.57,3450.63"/>
    </edge>
    <edge id=":antrim_25" function="internal">
        <lane id=":antrim_25_0" index="0" speed="3.65" length="4.68" shape="2283.50,3450.59 2282.78,3451.84 2282.00,3452.29 2281.18,3451.95 2280.30,3450.80"/>
    </edge>
    <edge id=":antrim_26" function="internal">
        <lane id=":antrim_26_0" index="0" speed="5.60" length="13.47" shape="2278.60,3450.85 2279.88,3455.76 2280.58,3457.39 2280.73,3455.74 2280.30,3450.80"/>
    </edge>
    <edge id=":antrim_27" function="internal">
        <lane id=":antrim_27_0" index="0" speed="6.99" length="21.79" shape="2278.60,3450.85 2280.72,3458.71 2282.08,3461.29 2282.70,3458.60 2282.57,3450.63"/>
    </edge>
    <edge id=":antrim_28" function="internal">
        <lane id=":antrim_28_0" index="0" speed="10.00" length="38.58" shape="2278.60,3450.85 2282.94,3466.05 2287.52,3476.01 2292.33,3480.72 2297.38,3480.20"/>
    </edge>
    <edge id=":antrim_29" function="internal">
        <lane id=":antrim_29_0" index="0" speed="10.00" length="80.89" shape="2278.60,3450.85 2279.78,3469.55 2274.07,3486.70 2261.48,3502.32 2242.02,3516.39"/>
    </edge>
    <edge id=":antrim_30" function="internal">
        <lane id=":antrim_30_0" index="0" speed="10.00" length="79.59" shape="2278.60,3450.85 2279.88,3470.42 2273.66,3486.80 2259.96,3499.99 2238.76,3509.99"/>
    </edge>
    <edge id=":antrim_31" function="internal">
        <lane id=":antrim_31_0" index="0" speed="10.00" length="35.40" shape="2278.60,3450.85 2279.26,3460.04 2278.19,3471.56 2275.43,3480.79 2271.01,3483.10"/>
    </edge>
    <edge id=":antrim_32" function="internal">
        <lane id=":antrim_32_0" index="0" speed="9.36" length="33.34" shape="2278.60,3450.85 2279.57,3459.95 2279.19,3471.15 2277.18,3479.74 2273.23,3481.04"/>
    </edge>
    <edge id=":antrim_33" function="internal">
        <lane id=":antrim_33_0" index="0" speed="7.48" length="22.91" shape="2278.60,3450.85 2277.73,3456.55 2274.00,3462.44 2269.23,3466.17 2265.19,3465.36"/>
    </edge>
    <edge id=":antrim_34" function="internal">
        <lane id=":antrim_34_0" index="0" speed="7.35" length="22.19" shape="2278.60,3450.85 2277.75,3456.39 2274.15,3462.14 2269.55,3465.78 2265.70,3464.98"/>
    </edge>
    <edge id=":antrim_35" function="internal">
        <lane id=":antrim_35_0" index="0" speed="7.65" length="24.62" shape="2278.60,3450.85 2277.78,3457.12 2273.32,3460.88 2267.36,3461.30 2262.05,3457.56"/>
    </edge>
    <edge id=":antrim_36" function="internal">
        <lane id=":antrim_36_0" index="0" speed="7.08" length="21.35" shape="2278.60,3450.85 2277.80,3456.22 2273.79,3459.38 2268.57,3459.61 2264.16,3456.18"/>
    </edge>
    <edge id=":antrim_37" function="internal">
        <lane id=":antrim_37_0" index="0" speed="5.60" length="13.32" shape="2278.60,3450.85 2277.95,3454.01 2275.17,3455.58 2271.78,3455.28 2269.31,3452.81"/>
    </edge>
    <edge id=":antrim_38" function="internal">
        <lane id=":antrim_38_0" index="0" speed="4.67" length="8.89" shape="2278.60,3450.85 2277.27,3453.25 2275.82,3454.13 2274.24,3453.50 2272.54,3451.35"/>
    </edge>
    <edge id=":antrim_39" function="internal">
        <lane id=":antrim_39_0" index="0" speed="3.48" length="3.92" shape="2272.21,3451.44 2272.79,3452.80 2273.04,3453.23 2272.96,3452.75 2272.54,3451.35"/>
    </edge>
    <edge id=":antrim_40" function="internal">
        <lane id=":antrim_40_0" index="0" speed="8.16" length="29.32" shape="2272.21,3451.44 2276.84,3461.40 2279.74,3464.61 2280.89,3461.08 2280.30,3450.80"/>
    </edge>
    <edge id=":antrim_41" function="internal">
        <lane id=":antrim_41_0" index="0" speed="8.57" length="31.80" shape="2272.21,3451.44 2277.26,3462.06 2280.67,3465.46 2282.44,3461.65 2282.57,3450.63"/>
    </edge>
    <edge id=":antrim_42" function="internal">
        <lane id=":antrim_42_0" index="0" speed="10.00" length="41.53" shape="2272.21,3451.44 2279.24,3466.45 2285.78,3476.24 2291.83,3480.83 2297.38,3480.20"/>
    </edge>
    <edge id=":antrim_43" function="internal">
        <lane id=":antrim_43_0" index="0" speed="10.00" length="79.20" shape="2272.21,3451.44 2276.25,3469.84 2272.56,3486.80 2261.15,3502.32 2242.02,3516.39"/>
    </edge>
    <edge id=":antrim_44" function="internal">
        <lane id=":antrim_44_0" index="0" speed="10.00" length="68.56" shape="2272.21,3451.44 2269.60,3463.65 2259.92,3482.73 2248.02,3500.80 2238.76,3509.99"/>
    </edge>
    <edge id=":antrim_45" function="internal">
        <lane id=":antrim_45_0" index="0" speed="9.55" length="34.35" shape="2272.21,3451.44 2274.53,3460.41 2275.74,3471.82 2274.89,3480.96 2271.01,3483.10"/>
    </edge>
    <edge id=":antrim_46" function="internal">
        <lane id=":antrim_46_0" index="0" speed="8.93" length="32.42" shape="2272.21,3451.44 2274.78,3460.30 2276.62,3471.38 2276.50,3479.88 2273.23,3481.04"/>
    </edge>
    <edge id=":antrim_47" function="internal">
        <lane id=":antrim_47_0" index="0" speed="6.52" length="18.02" shape="2272.21,3451.44 2272.40,3456.22 2270.66,3461.73 2267.93,3465.58 2265.19,3465.36"/>
    </edge>
    <edge id=":antrim_48" function="internal">
        <lane id=":antrim_48_0" index="0" speed="6.39" length="17.34" shape="2272.21,3451.44 2272.42,3456.07 2270.81,3461.44 2268.27,3465.19 2265.70,3464.98"/>
    </edge>
    <edge id=":antrim_49" function="internal">
        <lane id=":antrim_49_0" index="0" speed="6.21" length="16.56" shape="2272.21,3451.44 2272.21,3455.73 2269.49,3458.81 2265.59,3459.74 2262.05,3457.56"/>
    </edge>
    <edge id=":antrim_50" function="internal">
        <lane id=":antrim_50_0" index="0" speed="5.56" length="13.11" shape="2272.21,3451.44 2272.16,3454.83 2269.94,3457.28 2266.83,3457.99 2264.16,3456.18"/>
    </edge>
    <edge id=":antrim_51" function="internal">
        <lane id=":antrim_51_0" index="0" speed="3.65" length="4.68" shape="2272.21,3451.44 2271.99,3452.87 2271.44,3453.57 2270.54,3453.55 2269.31,3452.81"/>
    </edge>
    <edge id=":antrim_52" function="internal">
        <lane id=":antrim_52_0" index="0" speed="4.57" length="8.05" shape="2267.98,3453.68 2269.70,3456.05 2270.49,3456.70 2270.36,3455.62 2269.31,3452.81"/>
    </edge>
    <edge id=":antrim_53" function="internal">
        <lane id=":antrim_53_0" index="0" speed="6.61" length="18.48" shape="2267.98,3453.68 2271.97,3459.03 2274.06,3460.42 2274.25,3457.86 2272.54,3451.35"/>
    </edge>
    <edge id=":antrim_54" function="internal">
        <lane id=":antrim_54_0" index="0" speed="8.42" length="28.93" shape="2267.98,3453.68 2274.38,3461.85 2278.57,3464.10 2280.54,3460.41 2280.30,3450.80"/>
    </edge>
    <edge id=":antrim_55" function="internal">
        <lane id=":antrim_55_0" index="0" speed="8.82" length="31.13" shape="2267.98,3453.68 2274.84,3462.31 2279.55,3464.68 2282.13,3460.78 2282.57,3450.63"/>
    </edge>
    <edge id=":antrim_56" function="internal">
        <lane id=":antrim_56_0" index="0" speed="10.00" length="41.50" shape="2267.98,3453.68 2277.78,3467.15 2285.94,3476.06 2292.48,3480.41 2297.38,3480.20"/>
    </edge>
    <edge id=":antrim_57" function="internal">
        <lane id=":antrim_57_0" index="0" speed="10.00" length="68.89" shape="2267.98,3453.68 2266.92,3465.69 2259.58,3485.88 2249.95,3505.66 2242.02,3516.39"/>
    </edge>
    <edge id=":antrim_58" function="internal">
        <lane id=":antrim_58_0" index="0" speed="10.00" length="59.95" shape="2265.30,3455.43 2264.28,3466.19 2256.54,3482.90 2246.30,3498.75 2237.74,3506.96"/>
    </edge>
    <edge id=":antrim_59" function="internal">
        <lane id=":antrim_59_0" index="0" speed="8.76" length="31.30" shape="2265.30,3455.43 2269.40,3463.44 2272.98,3473.55 2274.15,3481.52 2271.01,3483.10"/>
    </edge>
    <edge id=":antrim_60" function="internal">
        <lane id=":antrim_60_0" index="0" speed="8.24" length="29.64" shape="2265.30,3455.43 2269.62,3463.31 2273.75,3473.05 2275.64,3480.38 2273.23,3481.04"/>
    </edge>
    <edge id=":antrim_61" function="internal">
        <lane id=":antrim_61_0" index="0" speed="5.14" length="11.22" shape="2265.30,3455.43 2266.36,3458.51 2266.71,3462.40 2266.34,3465.29 2265.19,3465.36"/>
    </edge>
    <edge id=":antrim_62" function="internal">
        <lane id=":antrim_62_0" index="0" speed="5.43" length="12.87" shape="2265.30,3455.43 2267.07,3459.37 2267.82,3463.44 2267.41,3465.88 2265.70,3464.98"/>
    </edge>
    <edge id=":antrim_63" function="internal">
        <lane id=":antrim_63_0" index="0" speed="7.87" length="29.60" shape="2265.30,3455.43 2259.03,3446.29 2256.75,3443.37 2258.46,3446.66 2264.16,3456.18"/>
    </edge>
    <edge id=":antrim_64" function="internal">
        <lane id=":antrim_64_0" index="0" speed="3.91" length="5.68" shape="2265.30,3455.43 2265.29,3457.18 2264.74,3458.12 2263.66,3458.25 2262.05,3457.56"/>
    </edge>
    <edge id=":antrim_65" function="internal">
        <lane id=":antrim_65_0" index="0" speed="3.29" length="3.15" shape="2270.61,3479.29 2271.20,3479.62 2271.84,3480.02 2272.51,3480.49 2273.23,3481.04"/>
    </edge>
    <edge id=":antrim_66" function="internal">
        <lane id=":antrim_66_0" index="0" speed="7.18" length="21.04" shape="2270.61,3479.29 2273.84,3480.26 2274.02,3478.26 2271.14,3473.29 2265.19,3465.36"/>
    </edge>
    <edge id=":antrim_67" function="internal">
        <lane id=":antrim_67_0" index="0" speed="7.27" length="21.44" shape="2270.61,3479.29 2273.99,3480.29 2274.30,3478.24 2271.54,3473.14 2265.70,3464.98"/>
    </edge>
    <edge id=":antrim_68" function="internal">
        <lane id=":antrim_68_0" index="0" speed="8.44" length="29.10" shape="2270.61,3479.29 2273.96,3479.93 2273.66,3476.53 2269.69,3469.07 2262.05,3457.56"/>
    </edge>
    <edge id=":antrim_69" function="internal">
        <lane id=":antrim_69_0" index="0" speed="8.69" length="30.16" shape="2270.61,3479.29 2274.36,3479.98 2274.53,3476.36 2271.13,3468.43 2264.16,3456.18"/>
    </edge>
    <edge id=":antrim_70" function="internal">
        <lane id=":antrim_70_0" index="0" speed="9.38" length="33.08" shape="2270.61,3479.29 2275.12,3480.00 2276.41,3475.82 2274.47,3466.75 2269.31,3452.81"/>
    </edge>
    <edge id=":antrim_71" function="internal">
        <lane id=":antrim_71_0" index="0" speed="9.77" length="34.57" shape="2270.61,3479.29 2275.50,3480.00 2277.45,3475.57 2276.47,3466.02 2272.54,3451.35"/>
    </edge>
    <edge id=":antrim_72" function="internal">
        <lane id=":antrim_72_0" index="0" speed="10.00" length="36.36" shape="2270.61,3479.29 2276.27,3480.11 2279.77,3475.63 2281.12,3465.86 2280.30,3450.80"/>
    </edge>
    <edge id=":antrim_73" function="internal">
        <lane id=":antrim_73_0" index="0" speed="10.00" length="37.13" shape="2270.61,3479.29 2276.48,3480.13 2280.43,3475.64 2282.46,3465.80 2282.57,3450.63"/>
    </edge>
    <edge id=":antrim_74" function="internal">
        <lane id=":antrim_74_0" index="0" speed="10.00" length="28.02" shape="2270.61,3479.29 2278.03,3482.30 2284.96,3483.46 2291.42,3482.76 2297.38,3480.20"/>
    </edge>
    <edge id=":antrim_75" function="internal">
        <lane id=":antrim_75_0" index="0" speed="10.00" length="47.84" shape="2270.61,3479.29 2269.47,3485.62 2261.19,3497.20 2250.48,3509.10 2242.02,3516.39"/>
    </edge>
    <edge id=":antrim_76" function="internal">
        <lane id=":antrim_76_0" index="0" speed="10.00" length="44.24" shape="2270.61,3479.29 2269.21,3484.53 2259.60,3493.23 2247.28,3501.88 2237.74,3506.96"/>
    </edge>
    <edge id=":antrim_77" function="internal">
        <lane id=":antrim_77_0" index="0" speed="3.88" length="5.59" shape="2270.61,3479.29 2272.13,3480.09 2272.71,3480.99 2272.34,3481.99 2271.01,3483.10"/>
    </edge>
    <edge id=":antrim_78" function="internal">
        <lane id=":antrim_78_0" index="0" speed="6.17" length="16.80" shape="2266.91,3463.95 2262.29,3459.69 2260.47,3458.51 2261.43,3460.40 2265.19,3465.36"/>
    </edge>
    <edge id=":antrim_79" function="internal">
        <lane id=":antrim_79_0" index="0" speed="5.05" length="10.46" shape="2266.91,3463.95 2264.04,3461.32 2262.88,3460.62 2263.43,3461.83 2265.70,3464.98"/>
    </edge>
    <edge id=":antrim_80" function="internal">
        <lane id=":antrim_80_0" index="0" speed="4.56" length="8.03" shape="2266.91,3463.95 2266.16,3463.12 2265.10,3461.78 2263.73,3459.93 2262.05,3457.56"/>
    </edge>
    <edge id=":antrim_81" function="internal">
        <lane id=":antrim_81_0" index="0" speed="5.47" length="12.18" shape="2266.91,3463.95 2268.52,3465.18 2268.60,3464.30 2267.15,3461.30 2264.16,3456.18"/>
    </edge>
    <edge id=":antrim_82" function="internal">
        <lane id=":antrim_82_0" index="0" speed="7.36" length="22.34" shape="2266.91,3463.95 2271.42,3467.45 2273.33,3466.77 2272.62,3461.88 2269.31,3452.81"/>
    </edge>
    <edge id=":antrim_83" function="internal">
        <lane id=":antrim_83_0" index="0" speed="8.05" length="26.14" shape="2266.91,3463.95 2272.40,3468.11 2275.17,3467.40 2275.22,3461.81 2272.54,3451.35"/>
    </edge>
    <edge id=":antrim_84" function="internal">
        <lane id=":antrim_84_0" index="0" speed="9.15" length="31.48" shape="2266.91,3463.95 2273.93,3469.09 2278.51,3468.61 2280.63,3462.51 2280.30,3450.80"/>
    </edge>
    <edge id=":antrim_85" function="internal">
        <lane id=":antrim_85_0" index="0" speed="10.00" length="38.11" shape="2264.54,3466.11 2273.04,3472.25 2278.88,3471.71 2282.06,3464.51 2282.57,3450.63"/>
    </edge>
    <edge id=":antrim_86" function="internal">
        <lane id=":antrim_86_0" index="0" speed="10.00" length="37.93" shape="2264.54,3466.11 2274.72,3474.82 2283.59,3480.07 2291.14,3481.87 2297.38,3480.20"/>
    </edge>
    <edge id=":antrim_87" function="internal">
        <lane id=":antrim_87_0" index="0" speed="10.00" length="56.49" shape="2264.54,3466.11 2264.56,3475.71 2258.35,3491.68 2249.60,3507.44 2242.02,3516.39"/>
    </edge>
    <edge id=":antrim_88" function="internal">
        <lane id=":antrim_88_0" index="0" speed="10.00" length="50.82" shape="2264.54,3466.11 2264.24,3474.69 2256.70,3487.78 2246.38,3500.25 2237.74,3506.96"/>
    </edge>
    <edge id=":antrim_89" function="internal">
        <lane id=":antrim_89_0" index="0" speed="6.91" length="20.39" shape="2264.54,3466.11 2268.15,3470.93 2271.43,3477.22 2272.89,3482.20 2271.01,3483.10"/>
    </edge>
    <edge id=":antrim_90" function="internal">
        <lane id=":antrim_90_0" index="0" speed="7.37" length="25.23" shape="2264.54,3466.11 2272.31,3466.58 2276.35,3469.23 2276.65,3474.04 2273.23,3481.04"/>
    </edge>
    <edge id=":antrim_91" function="internal">
        <lane id=":antrim_91_0" index="0" speed="3.01" length="2.27" shape="2272.54,3480.12 2272.04,3479.90 2271.99,3479.97 2272.39,3480.35 2273.23,3481.04"/>
    </edge>
    <edge id=":antrim_92" function="internal">
        <lane id=":antrim_92_0" index="0" speed="7.12" length="20.74" shape="2272.54,3480.12 2274.89,3480.68 2274.45,3478.40 2271.22,3473.30 2265.19,3465.36"/>
    </edge>
    <edge id=":antrim_93" function="internal">
        <lane id=":antrim_93_0" index="0" speed="7.21" length="21.11" shape="2272.54,3480.12 2275.04,3480.72 2274.74,3478.39 2271.62,3473.14 2265.70,3464.98"/>
    </edge>
    <edge id=":antrim_94" function="internal">
        <lane id=":antrim_94_0" index="0" speed="8.40" length="28.91" shape="2272.54,3480.12 2275.02,3480.36 2274.10,3476.68 2269.78,3469.08 2262.05,3457.56"/>
    </edge>
    <edge id=":antrim_95" function="internal">
        <lane id=":antrim_95_0" index="0" speed="8.64" length="29.88" shape="2272.54,3480.12 2275.42,3480.42 2274.99,3476.53 2271.23,3468.45 2264.16,3456.18"/>
    </edge>
    <edge id=":antrim_96" function="internal">
        <lane id=":antrim_96_0" index="0" speed="9.30" length="32.61" shape="2272.54,3480.12 2276.20,3480.44 2276.88,3476.00 2274.58,3466.78 2269.31,3452.81"/>
    </edge>
    <edge id=":antrim_97" function="internal">
        <lane id=":antrim_97_0" index="0" speed="9.67" length="33.98" shape="2272.54,3480.12 2276.58,3480.45 2277.93,3475.76 2276.58,3466.06 2272.54,3451.35"/>
    </edge>
    <edge id=":antrim_98" function="internal">
        <lane id=":antrim_98_0" index="0" speed="10.00" length="35.50" shape="2272.54,3480.12 2277.36,3480.57 2280.26,3475.83 2281.24,3465.90 2280.30,3450.80"/>
    </edge>
    <edge id=":antrim_99" function="internal">
        <lane id=":antrim_99_0" index="0" speed="10.00" length="36.20" shape="2272.54,3480.12 2277.56,3480.59 2280.91,3475.83 2282.58,3465.84 2282.57,3450.63"/>
    </edge>
    <edge id=":antrim_100" function="internal">
        <lane id=":antrim_100_0" index="0" speed="10.00" length="26.03" shape="2272.54,3480.12 2279.12,3482.77 2285.45,3483.66 2291.54,3482.81 2297.38,3480.20"/>
    </edge>
    <edge id=":antrim_101" function="internal">
        <lane id=":antrim_101_0" index="0" speed="10.00" length="48.19" shape="2272.54,3480.12 2270.84,3486.21 2261.93,3497.51 2250.69,3509.19 2242.02,3516.39"/>
    </edge>
    <edge id=":antrim_102" function="internal">
        <lane id=":antrim_102_0" index="0" speed="10.00" length="44.91" shape="2272.54,3480.12 2270.53,3485.09 2260.29,3493.52 2247.48,3501.96 2237.74,3506.96"/>
    </edge>
    <edge id=":antrim_103" function="internal">
        <lane id=":antrim_103_0" index="0" speed="3.29" length="3.34" shape="2272.54,3480.12 2271.01,3483.10"/>
    </edge>
    <edge id=":antrim_104" function="internal">
        <lane id=":antrim_104_0" index="0" speed="8.05" length="28.30" shape="2276.06,3473.27 2266.63,3470.26 2263.02,3470.55 2265.22,3474.14 2273.23,3481.04"/>
    </edge>
    <edge id=":antrim_105" function="internal">
        <lane id=":antrim_105_0" index="0" speed="6.03" length="13.60" shape="2276.06,3473.27 2272.92,3471.85 2270.07,3470.05 2267.49,3467.89 2265.19,3465.36"/>
    </edge>
    <edge id=":antrim_106" function="internal">
        <lane id=":antrim_106_0" index="0" speed="6.02" length="13.43" shape="2276.06,3473.27 2273.28,3471.95 2270.63,3470.12 2268.10,3467.80 2265.70,3464.98"/>
    </edge>
    <edge id=":antrim_107" function="internal">
        <lane id=":antrim_107_0" index="0" speed="7.45" length="21.20" shape="2276.06,3473.27 2273.65,3471.71 2270.51,3468.57 2266.64,3463.85 2262.05,3457.56"/>
    </edge>
    <edge id=":antrim_108" function="internal">
        <lane id=":antrim_108_0" index="0" speed="7.80" length="22.74" shape="2274.59,3476.13 2274.77,3475.20 2273.09,3471.57 2269.55,3465.23 2264.16,3456.18"/>
    </edge>
    <edge id=":antrim_109" function="internal">
        <lane id=":antrim_109_0" index="0" speed="8.51" length="25.52" shape="2274.59,3476.13 2276.20,3475.41 2275.85,3471.28 2273.56,3463.74 2269.31,3452.81"/>
    </edge>
    <edge id=":antrim_110" function="internal">
        <lane id=":antrim_110_0" index="0" speed="8.95" length="27.15" shape="2274.59,3476.13 2276.89,3475.50 2277.31,3471.16 2275.86,3463.11 2272.54,3451.35"/>
    </edge>
    <edge id=":antrim_111" function="internal">
        <lane id=":antrim_111_0" index="0" speed="10.00" length="33.16" shape="2273.12,3479.00 2277.55,3478.74 2280.23,3473.96 2281.15,3464.64 2280.30,3450.80"/>
    </edge>
    <edge id=":antrim_112" function="internal">
        <lane id=":antrim_112_0" index="0" speed="10.00" length="33.95" shape="2273.12,3479.00 2277.83,3478.78 2280.98,3473.99 2282.56,3464.60 2282.57,3450.63"/>
    </edge>
    <edge id=":antrim_113" function="internal">
        <lane id=":antrim_113_0" index="0" speed="10.00" length="25.05" shape="2273.12,3479.00 2280.70,3481.37 2287.28,3482.36 2292.84,3481.97 2297.38,3480.20"/>
    </edge>
    <edge id=":antrim_114" function="internal">
        <lane id=":antrim_114_0" index="0" speed="10.00" length="53.00" shape="2271.64,3481.86 2276.44,3487.87 2270.67,3496.50 2257.99,3506.44 2242.02,3516.39"/>
    </edge>
    <edge id=":antrim_115" function="internal">
        <lane id=":antrim_115_0" index="0" speed="10.00" length="43.23" shape="2271.64,3481.86 2270.08,3486.35 2260.12,3494.20 2247.44,3502.16 2237.74,3506.96"/>
    </edge>
    <edge id=":antrim_116" function="internal">
        <lane id=":antrim_116_0" index="0" speed="5.38" length="12.32" shape="2271.64,3481.86 2267.30,3480.31 2265.74,3480.00 2266.98,3480.93 2271.01,3483.10"/>
    </edge>
    <edge id=":antrim_117" function="internal">
        <lane id=":antrim_117_0" index="0" speed="10.00" length="41.49" shape="2235.70,3500.90 2253.74,3494.44 2265.64,3489.33 2271.40,3485.54 2271.01,3483.10"/>
    </edge>
    <edge id=":antrim_118" function="internal">
        <lane id=":antrim_118_0" index="0" speed="10.00" length="44.48" shape="2235.70,3500.90 2254.53,3494.10 2267.06,3488.52 2273.30,3484.17 2273.23,3481.04"/>
    </edge>
    <edge id=":antrim_119" function="internal">
        <lane id=":antrim_119_0" index="0" speed="10.00" length="55.13" shape="2235.70,3500.90 2254.61,3492.92 2265.83,3484.34 2269.36,3475.15 2265.19,3465.36"/>
    </edge>
    <edge id=":antrim_120" function="internal">
        <lane id=":antrim_120_0" index="0" speed="10.00" length="55.59" shape="2235.70,3500.90 2254.69,3492.88 2266.02,3484.22 2269.69,3474.92 2265.70,3464.98"/>
    </edge>
    <edge id=":antrim_121" function="internal">
        <lane id=":antrim_121_0" index="0" speed="10.00" length="61.54" shape="2235.70,3500.90 2254.54,3492.39 2265.21,3482.33 2267.72,3470.72 2262.05,3457.56"/>
    </edge>
    <edge id=":antrim_122" function="internal">
        <lane id=":antrim_122_0" index="0" speed="10.00" length="63.12" shape="2235.70,3500.90 2254.80,3492.26 2265.91,3481.93 2269.03,3469.91 2264.16,3456.18"/>
    </edge>
    <edge id=":antrim_123" function="internal">
        <lane id=":antrim_123_0" index="0" speed="10.00" length="67.27" shape="2235.70,3500.90 2255.40,3491.96 2267.57,3480.96 2272.21,3467.91 2269.31,3452.81"/>
    </edge>
    <edge id=":antrim_124" function="internal">
        <lane id=":antrim_124_0" index="0" speed="10.00" length="71.86" shape="2236.72,3503.93 2256.69,3494.66 2269.32,3482.81 2274.60,3468.37 2272.54,3451.35"/>
    </edge>
    <edge id=":antrim_125" function="internal">
        <lane id=":antrim_125_0" index="0" speed="10.00" length="74.85" shape="2236.72,3503.93 2257.28,3494.60 2271.39,3482.63 2279.07,3468.03 2280.30,3450.80"/>
    </edge>
    <edge id=":antrim_126" function="internal">
        <lane id=":antrim_126_0" index="0" speed="10.00" length="75.91" shape="2236.72,3503.93 2257.44,3494.58 2271.99,3482.58 2280.37,3467.93 2282.57,3450.63"/>
    </edge>
    <edge id=":antrim_127" function="internal">
        <lane id=":antrim_127_0" index="0" speed="10.00" length="65.15" shape="2236.72,3503.93 2249.59,3499.24 2269.00,3491.84 2287.43,3484.56 2297.38,3480.20"/>
    </edge>
    <edge id=":antrim_128" function="internal">
        <lane id=":antrim_128_0" index="0" speed="6.58" length="18.94" shape="2236.72,3503.93 2241.47,3504.33 2244.48,3507.84 2244.94,3512.51 2242.02,3516.39"/>
    </edge>
    <edge id=":antrim_129" function="internal">
        <lane id=":antrim_129_0" index="0" speed="3.65" length="4.67" shape="2236.72,3503.93 2238.11,3504.31 2238.75,3504.94 2238.62,3505.82 2237.74,3506.96"/>
    </edge>
    <edge id=":antrim_130" function="internal">
        <lane id=":antrim_130_0" index="0" speed="6.79" length="20.30" shape="2240.41,3513.63 2246.75,3509.66 2248.59,3507.73 2245.93,3507.84 2238.76,3509.99"/>
    </edge>
    <edge id=":antrim_131" function="internal">
        <lane id=":antrim_131_0" index="0" speed="10.00" length="47.63" shape="2240.41,3513.63 2258.17,3502.51 2269.19,3493.72 2273.47,3487.25 2271.01,3483.10"/>
    </edge>
    <edge id=":antrim_132" function="internal">
        <lane id=":antrim_132_0" index="0" speed="10.00" length="49.92" shape="2240.41,3513.63 2258.49,3502.28 2269.99,3493.07 2274.90,3485.99 2273.23,3481.04"/>
    </edge>