<?xml version="1.0" encoding="UTF-8"?>

<!-- generated on 2025-02-19 12:52:17 by Eclipse SUMO netconvert Version 1.18.0
<configuration xmlns:xsi="http://www.w3.org/2001/XMLSchema-instance" xsi:noNamespaceSchemaLocation="http://sumo.dlr.de/xsd/netconvertConfiguration.xsd">

    <input>
        <node-files value="nod.xml"/>
        <edge-files value="edge_xmls/08431.xml"/>
    </input>

    <output>
        <output-file value="networks/08431.net.xml"/>
    </output>

</configuration>
-->

<net version="1.16" junctionCornerDetail="5" limitTurnSpeed="5.50" xmlns:xsi="http://www.w3.org/2001/XMLSchema-instance" xsi:noNamespaceSchemaLocation="http://sumo.dlr.de/xsd/net_file.xsd">

    <location netOffset="-682.00,4368.00" convBoundary="0.00,0.00,2498.00,3881.00" origBoundary="682.00,-4368.00,3180.00,-487.00" projParameter="!"/>

    <edge id=":antrim_0" function="internal">
        <lane id=":antrim_0_0" index="0" speed="4.07" length="5.96" shape="2285.77,3477.11 2285.34,3474.68 2285.01,3473.70 2284.79,3474.18 2284.68,3476.11"/>
    </edge>
    <edge id=":antrim_1" function="internal">
        <lane id=":antrim_1_0" index="0" speed="2.66" length="1.28" shape="2285.77,3477.11 2285.76,3477.24 2285.66,3477.00 2285.55,3476.57 2285.52,3476.13"/>
    </edge>
    <edge id=":antrim_2" function="internal">
        <lane id=":antrim_2_0" index="0" speed="10.00" length="25.34" shape="2285.77,3477.11 2286.06,3484.46 2284.43,3490.34 2280.86,3494.73 2275.36,3497.65"/>
    </edge>
    <edge id=":antrim_3" function="internal">
        <lane id=":antrim_3_0" index="0" speed="9.20" length="28.38" shape="2285.77,3477.11 2284.79,3483.95 2279.99,3486.82 2272.81,3486.37 2264.71,3483.24"/>
    </edge>
    <edge id=":antrim_4" function="internal">
        <lane id=":antrim_4_0" index="0" speed="8.25" length="26.15" shape="2285.77,3477.11 2283.64,3479.84 2277.39,3477.96 2269.89,3473.60 2264.04,3468.92"/>
    </edge>
    <edge id=":antrim_5" function="internal">
        <lane id=":antrim_5_0" index="0" speed="7.05" length="19.97" shape="2285.77,3477.11 2284.81,3480.67 2281.09,3479.99 2276.25,3476.50 2271.89,3471.63"/>
    </edge>
    <edge id=":antrim_6" function="internal">
        <lane id=":antrim_6_0" index="0" speed="6.02" length="14.40" shape="2285.77,3477.11 2284.97,3479.90 2282.09,3479.99 2278.47,3478.03 2275.43,3474.71"/>
    </edge>
    <edge id=":antrim_7" function="internal">
        <lane id=":antrim_7_0" index="0" speed="4.36" length="7.24" shape="2285.77,3477.11 2284.94,3479.18 2283.85,3480.04 2282.51,3479.69 2280.92,3478.12"/>
    </edge>
    <edge id=":antrim_8" function="internal">
        <lane id=":antrim_8_0" index="0" speed="4.54" length="8.14" shape="2276.29,3474.19 2274.35,3471.84 2273.56,3471.15 2273.92,3472.11 2275.43,3474.71"/>
    </edge>
    <edge id=":antrim_9" function="internal">
        <lane id=":antrim_9_0" index="0" speed="6.15" length="13.29" shape="2276.29,3474.19 2279.89,3478.19 2282.49,3479.84 2284.09,3479.15 2284.68,3476.11"/>
    </edge>
    <edge id=":antrim_10" function="internal">
        <lane id=":antrim_10_0" index="0" speed="6.39" length="14.07" shape="2276.29,3474.19 2280.04,3478.31 2282.83,3480.01 2284.66,3479.28 2285.52,3476.13"/>
    </edge>
    <edge id=":antrim_11" function="internal">
        <lane id=":antrim_11_0" index="0" speed="10.00" length="29.23" shape="2276.29,3474.19 2281.30,3481.58 2283.50,3488.19 2281.86,3493.67 2275.36,3497.65"/>
    </edge>
    <edge id=":antrim_12" function="internal">
        <lane id=":antrim_12_0" index="0" speed="6.37" length="16.21" shape="2276.29,3474.19 2277.26,3477.77 2274.96,3480.38 2270.81,3481.45 2266.19,3480.41"/>
    </edge>
    <edge id=":antrim_13" function="internal">
        <lane id=":antrim_13_0" index="0" speed="8.30" length="33.06" shape="2276.29,3474.19 2267.78,3463.65 2264.21,3459.71 2265.58,3462.37 2271.89,3471.63"/>
    </edge>
    <edge id=":antrim_14" function="internal">
        <lane id=":antrim_14_0" index="0" speed="4.63" length="7.77" shape="2276.29,3474.19 2278.68,3477.09 2280.25,3478.71 2281.00,3479.05 2280.92,3478.12"/>
    </edge>
    <edge id=":antrim_15" function="internal">
        <lane id=":antrim_15_0" index="0" speed="6.56" length="19.48" shape="2276.29,3474.19 2271.25,3477.47 2267.53,3477.68 2265.12,3474.83 2264.04,3468.92"/>
    </edge>
    <edge id=":antrim_16" function="internal">
        <lane id=":antrim_16_0" index="0" speed="4.49" length="7.89" shape="2269.81,3474.29 2268.65,3473.34 2267.31,3472.12 2265.77,3470.65 2264.04,3468.92"/>
    </edge>
    <edge id=":antrim_17" function="internal">
        <lane id=":antrim_17_0" index="0" speed="5.44" length="11.85" shape="2269.81,3474.29 2273.21,3476.69 2274.69,3477.04 2274.26,3475.36 2271.89,3471.63"/>
    </edge>
    <edge id=":antrim_18" function="internal">
        <lane id=":antrim_18_0" index="0" speed="6.41" length="15.20" shape="2269.81,3474.29 2275.42,3478.39 2279.15,3480.39 2280.98,3480.30 2280.92,3478.12"/>
    </edge>
    <edge id=":antrim_19" function="internal">
        <lane id=":antrim_19_0" index="0" speed="5.51" length="11.90" shape="2269.81,3474.29 2274.00,3477.33 2276.34,3478.41 2276.82,3477.54 2275.43,3474.71"/>
    </edge>
    <edge id=":antrim_20" function="internal">
        <lane id=":antrim_20_0" index="0" speed="7.68" length="19.35" shape="2269.81,3474.29 2276.23,3478.71 2280.86,3480.48 2283.67,3479.62 2284.68,3476.11"/>
    </edge>
    <edge id=":antrim_21" function="internal">
        <lane id=":antrim_21_0" index="0" speed="7.93" length="20.03" shape="2269.81,3474.29 2276.36,3478.77 2281.16,3480.57 2284.22,3479.69 2285.52,3476.13"/>
    </edge>
    <edge id=":antrim_22" function="internal">
        <lane id=":antrim_22_0" index="0" speed="8.52" length="23.42" shape="2269.81,3474.29 2273.75,3478.96 2276.59,3485.23 2277.17,3491.11 2274.34,3494.62"/>
    </edge>
    <edge id=":antrim_23" function="internal">
        <lane id=":antrim_23_0" index="0" speed="4.63" length="8.38" shape="2269.81,3474.29 2270.32,3476.02 2269.48,3478.31 2267.90,3480.12 2266.19,3480.41"/>
    </edge>
    <edge id=":antrim_24" function="internal">
        <lane id=":antrim_24_0" index="0" speed="6.37" length="16.92" shape="2267.68,3477.57 2271.21,3479.01 2271.78,3478.04 2269.39,3474.68 2264.04,3468.92"/>
    </edge>
    <edge id=":antrim_25" function="internal">
        <lane id=":antrim_25_0" index="0" speed="6.57" length="16.96" shape="2267.68,3477.57 2272.91,3479.81 2275.35,3479.56 2275.01,3476.83 2271.89,3471.63"/>
    </edge>
    <edge id=":antrim_26" function="internal">
        <lane id=":antrim_26_0" index="0" speed="7.03" length="17.14" shape="2267.68,3477.57 2274.37,3480.69 2278.81,3481.81 2280.99,3480.96 2280.92,3478.12"/>
    </edge>
    <edge id=":antrim_27" function="internal">
        <lane id=":antrim_27_0" index="0" speed="6.45" length="15.82" shape="2267.68,3477.57 2273.40,3480.14 2276.59,3480.52 2277.27,3478.71 2275.43,3474.71"/>
    </edge>
    <edge id=":antrim_28" function="internal">
        <lane id=":antrim_28_0" index="0" speed="8.35" length="21.05" shape="2267.68,3477.57 2275.03,3480.78 2280.32,3481.61 2283.53,3480.05 2284.68,3476.11"/>
    </edge>
    <edge id=":antrim_29" function="internal">
        <lane id=":antrim_29_0" index="0" speed="8.62" length="21.69" shape="2267.68,3477.57 2275.15,3480.82 2280.61,3481.66 2284.07,3480.09 2285.52,3476.13"/>
    </edge>
    <edge id=":antrim_30" function="internal">
        <lane id=":antrim_30_0" index="0" speed="8.25" length="23.97" shape="2267.68,3477.57 2273.87,3481.77 2278.00,3486.65 2278.63,3491.25 2274.34,3494.62"/>
    </edge>
    <edge id=":antrim_31" function="internal">
        <lane id=":antrim_31_0" index="0" speed="3.65" length="4.67" shape="2267.68,3477.57 2268.37,3478.84 2268.36,3479.73 2267.63,3480.26 2266.19,3480.41"/>
    </edge>
    <edge id=":athlone_0" function="internal">
        <lane id=":athlone_0_0" index="0" speed="7.14" length="13.87" shape="1262.15,1954.97 1261.32,1957.42 1262.40,1959.65 1265.38,1961.66 1270.26,1963.46"/>
    </edge>
    <edge id=":athlone_1" function="internal">
        <lane id=":athlone_1_0" index="0" speed="9.35" length="19.95" shape="1262.15,1954.97 1261.32,1958.02 1262.76,1961.57 1266.45,1965.62 1272.40,1970.16"/>
    </edge>
    <edge id=":athlone_2" function="internal">
        <lane id=":athlone_2_0" index="0" speed="10.00" length="20.14" shape="1262.15,1954.97 1261.72,1957.33 1262.70,1961.21 1265.06,1966.60 1268.81,1973.51"/>
    </edge>
    <edge id=":athlone_3" function="internal">
        <lane id=":athlone_3_0" index="0" speed="10.00" length="18.55" shape="1262.15,1954.97 1260.62,1958.24 1259.91,1962.10 1259.39,1966.87 1258.42,1972.86"/>
        <lane id=":athlone_3_1" index="1" speed="10.00" length="18.55" shape="1262.15,1954.97 1260.14,1958.12 1258.36,1961.72 1256.76,1966.26 1255.29,1972.20"/>
    </edge>
    <edge id=":athlone_5" function="internal">
        <lane id=":athlone_5_0" index="0" speed="10.00" length="17.93" shape="1262.15,1954.97 1259.09,1958.23 1255.42,1960.14 1251.12,1960.71 1246.20,1959.91"/>
    </edge>
    <edge id=":athlone_6" function="internal">
        <lane id=":athlone_6_0" index="0" speed="7.77" length="15.96" shape="1262.15,1954.97 1259.07,1958.24 1255.88,1959.39 1252.55,1958.44 1249.10,1955.37"/>
    </edge>
    <edge id=":athlone_7" function="internal">
        <lane id=":athlone_7_0" index="0" speed="6.00" length="9.81" shape="1249.27,1966.91 1250.57,1964.59 1250.49,1962.65 1249.03,1961.09 1246.20,1959.91"/>
    </edge>
    <edge id=":athlone_8" function="internal">
        <lane id=":athlone_8_0" index="0" speed="8.18" length="12.67" shape="1249.27,1966.91 1251.01,1963.99 1251.56,1961.09 1250.92,1958.22 1249.10,1955.37"/>
    </edge>
    <edge id=":athlone_9" function="internal">
        <lane id=":athlone_9_0" index="0" speed="10.00" length="22.56" shape="1249.27,1966.91 1252.89,1963.79 1257.59,1962.17 1263.38,1962.06 1270.26,1963.46"/>
    </edge>
    <edge id=":athlone_10" function="internal">
        <lane id=":athlone_10_0" index="0" speed="10.00" length="25.56" shape="1249.27,1966.91 1253.12,1964.09 1258.25,1963.69 1264.68,1965.71 1272.40,1970.16"/>
    </edge>
    <edge id=":athlone_11" function="internal">
        <lane id=":athlone_11_0" index="0" speed="8.86" length="22.66" shape="1249.27,1966.91 1252.92,1964.14 1256.93,1964.59 1261.31,1968.24 1266.04,1975.11"/>
    </edge>
    <edge id=":athlone_12" function="internal">
        <lane id=":athlone_12_0" index="0" speed="6.81" length="18.46" shape="1249.27,1966.91 1253.28,1962.66 1255.62,1962.12 1256.29,1965.31 1255.29,1972.20"/>
    </edge>
    <edge id=":belfast_0" function="internal">
        <lane id=":belfast_0_0" index="0" speed="9.32" length="30.63" shape="2493.87,3343.60 2492.30,3349.07 2485.34,3352.67 2476.28,3354.07 2468.43,3352.90"/>
    </edge>
    <edge id=":belfast_1" function="internal">
        <lane id=":belfast_1_0" index="0" speed="10.00" length="43.38" shape="2493.87,3343.60 2489.90,3346.06 2477.73,3342.90 2463.70,3337.14 2454.11,3331.81"/>
    </edge>
    <edge id=":belfast_2" function="internal">
        <lane id=":belfast_2_0" index="0" speed="10.00" length="41.89" shape="2493.87,3343.60 2489.98,3344.96 2478.51,3340.77 2465.27,3334.23 2456.09,3328.57"/>
    </edge>
    <edge id=":belfast_3" function="internal">
        <lane id=":belfast_3_0" index="0" speed="9.75" length="41.35" shape="2493.87,3343.60 2490.77,3344.21 2480.79,3337.34 2469.18,3327.74 2461.23,3320.13"/>
    </edge>
    <edge id=":belfast_4" function="internal">
        <lane id=":belfast_4_0" index="0" speed="10.00" length="53.87" shape="2493.87,3343.60 2494.27,3350.88 2486.72,3344.64 2475.24,3330.95 2463.82,3315.86"/>
    </edge>
    <edge id=":belfast_5" function="internal">
        <lane id=":belfast_5_0" index="0" speed="3.90" length="5.57" shape="2493.87,3343.60 2493.72,3344.99 2492.62,3345.87 2491.23,3345.99 2490.21,3345.07"/>
    </edge>
    <edge id=":belfast_6" function="internal">
        <lane id=":belfast_6_0" index="0" speed="3.66" length="4.65" shape="2493.87,3343.60 2493.55,3344.52 2492.40,3345.25 2491.07,3345.52 2490.23,3345.07"/>
    </edge>
    <edge id=":belfast_7" function="internal">
        <lane id=":belfast_7_0" index="0" speed="3.65" length="4.68" shape="2493.87,3343.60 2493.57,3345.02 2492.98,3345.69 2492.09,3345.61 2490.90,3344.80"/>
    </edge>
    <edge id=":belfast_8" function="internal">
        <lane id=":belfast_8_0" index="0" speed="10.00" length="38.81" shape="2496.17,3342.68 2496.57,3351.58 2490.30,3355.86 2480.03,3356.11 2468.43,3352.90"/>
    </edge>
    <edge id=":belfast_9" function="internal">
        <lane id=":belfast_9_0" index="0" speed="10.00" length="44.30" shape="2496.17,3342.68 2492.24,3344.78 2479.85,3341.00 2465.52,3334.65 2455.79,3329.06"/>
    </edge>
    <edge id=":belfast_10" function="internal">
        <lane id=":belfast_10_0" index="0" speed="10.00" length="44.18" shape="2496.17,3342.68 2492.29,3344.73 2479.98,3340.79 2465.75,3334.27 2456.09,3328.57"/>
    </edge>
    <edge id=":belfast_11" function="internal">
        <lane id=":belfast_11_0" index="0" speed="9.64" length="40.99" shape="2493.20,3343.87 2490.42,3344.55 2480.64,3337.58 2469.15,3327.82 2461.23,3320.13"/>
    </edge>
    <edge id=":belfast_12" function="internal">
        <lane id=":belfast_12_0" index="0" speed="9.53" length="41.43" shape="2493.20,3343.87 2490.75,3343.98 2481.73,3335.65 2471.09,3324.43 2463.82,3315.86"/>
    </edge>
    <edge id=":belfast_13" function="internal">
        <lane id=":belfast_13_0" index="0" speed="3.25" length="3.22" shape="2493.20,3343.87 2490.21,3345.07"/>
    </edge>
    <edge id=":belfast_14" function="internal">
        <lane id=":belfast_14_0" index="0" speed="10.00" length="57.69" shape="2493.20,3343.87 2484.95,3323.90 2481.82,3317.40 2483.80,3324.37 2490.90,3344.80"/>
    </edge>
    <edge id=":belfast_15" function="internal">
        <lane id=":belfast_15_0" index="0" speed="3.65" length="4.67" shape="2493.20,3343.87 2492.90,3345.28 2492.31,3345.95 2491.42,3345.88 2490.23,3345.07"/>
    </edge>
    <edge id=":belfast_16" function="internal">
        <lane id=":belfast_16_0" index="0" speed="3.03" length="2.38" shape="2461.86,3319.09 2462.46,3319.70 2462.69,3319.86 2462.54,3319.57 2462.02,3318.82"/>
    </edge>
    <edge id=":belfast_17" function="internal">
        <lane id=":belfast_17_0" index="0" speed="9.62" length="40.23" shape="2461.86,3319.09 2475.41,3333.28 2484.65,3342.35 2489.59,3346.28 2490.21,3345.07"/>
    </edge>
    <edge id=":belfast_18" function="internal">
        <lane id=":belfast_18_0" index="0" speed="9.62" length="40.26" shape="2461.86,3319.09 2475.42,3333.29 2484.67,3342.36 2489.61,3346.28 2490.23,3345.07"/>
    </edge>
    <edge id=":belfast_19" function="internal">
        <lane id=":belfast_19_0" index="0" speed="9.80" length="41.15" shape="2461.86,3319.09 2475.70,3333.53 2485.15,3342.62 2490.22,3346.38 2490.90,3344.80"/>
    </edge>
    <edge id=":belfast_20" function="internal">
        <lane id=":belfast_20_0" index="0" speed="10.00" length="46.10" shape="2461.86,3319.09 2470.89,3331.29 2476.68,3343.99 2476.70,3352.68 2468.43,3352.90"/>
    </edge>
    <edge id=":belfast_21" function="internal">
        <lane id=":belfast_21_0" index="0" speed="5.67" length="13.77" shape="2461.86,3319.09 2462.47,3322.18 2460.97,3326.04 2458.40,3328.91 2455.79,3329.06"/>
    </edge>
    <edge id=":belfast_22" function="internal">
        <lane id=":belfast_22_0" index="0" speed="5.54" length="13.09" shape="2461.86,3319.09 2462.43,3322.03 2461.01,3325.71 2458.56,3328.44 2456.09,3328.57"/>
    </edge>
    <edge id=":belfast_23" function="internal">
        <lane id=":belfast_23_0" index="0" speed="2.80" length="1.78" shape="2461.86,3319.09 2462.09,3319.58 2462.07,3319.92 2461.78,3320.11 2461.23,3320.13"/>
    </edge>
    <edge id=":belfast_24" function="internal">
        <lane id=":belfast_24_0" index="0" speed="7.52" length="26.25" shape="2459.62,3322.77 2466.83,3329.10 2469.50,3330.77 2467.63,3327.78 2461.23,3320.13"/>
    </edge>
    <edge id=":belfast_25" function="internal">
        <lane id=":belfast_25_0" index="0" speed="7.13" length="22.60" shape="2459.62,3322.77 2465.71,3327.95 2468.14,3329.02 2466.91,3325.98 2462.02,3318.82"/>
    </edge>
    <edge id=":belfast_26" function="internal">
        <lane id=":belfast_26_0" index="0" speed="9.82" length="40.77" shape="2459.62,3322.77 2474.37,3335.89 2484.38,3343.99 2489.66,3347.04 2490.21,3345.07"/>
    </edge>
    <edge id=":belfast_27" function="internal">
        <lane id=":belfast_27_0" index="0" speed="9.83" length="40.79" shape="2459.62,3322.77 2474.37,3335.90 2484.40,3343.99 2489.68,3347.05 2490.23,3345.07"/>
    </edge>
    <edge id=":belfast_28" function="internal">
        <lane id=":belfast_28_0" index="0" speed="10.00" length="41.56" shape="2459.62,3322.77 2474.59,3336.05 2484.80,3344.14 2490.24,3347.06 2490.90,3344.80"/>
    </edge>
    <edge id=":belfast_29" function="internal">
        <lane id=":belfast_29_0" index="0" speed="8.60" length="32.03" shape="2459.62,3322.77 2465.11,3330.03 2470.17,3339.89 2472.47,3347.98 2469.66,3349.95"/>
    </edge>
    <edge id=":belfast_30" function="internal">
        <lane id=":belfast_30_0" index="0" speed="4.20" length="6.79" shape="2459.62,3322.77 2456.09,3328.57"/>
    </edge>
    <edge id=":belfast_31" function="internal">
        <lane id=":belfast_31_0" index="0" speed="5.05" length="10.75" shape="2459.62,3322.77 2461.02,3325.78 2460.85,3327.83 2459.10,3328.93 2455.79,3329.06"/>
    </edge>
    <edge id=":belfast_32" function="internal">
        <lane id=":belfast_32_0" index="0" speed="3.03" length="2.39" shape="2461.07,3320.39 2461.73,3320.96 2461.98,3321.10 2461.81,3320.83 2461.23,3320.13"/>
    </edge>
    <edge id=":belfast_33" function="internal">
        <lane id=":belfast_33_0" index="0" speed="4.70" length="8.61" shape="2461.07,3320.39 2463.40,3322.33 2464.34,3322.72 2463.88,3321.55 2462.02,3318.82"/>
    </edge>
    <edge id=":belfast_34" function="internal">
        <lane id=":belfast_34_0" index="0" speed="9.55" length="38.26" shape="2461.07,3320.39 2474.17,3332.06 2483.40,3340.07 2488.74,3344.40 2490.21,3345.07"/>
    </edge>
    <edge id=":belfast_35" function="internal">
        <lane id=":belfast_35_0" index="0" speed="9.55" length="38.27" shape="2461.07,3320.39 2474.19,3332.07 2483.42,3340.08 2488.77,3344.41 2490.23,3345.07"/>
    </edge>
    <edge id=":belfast_36" function="internal">
        <lane id=":belfast_36_0" index="0" speed="10.00" length="41.62" shape="2459.38,3323.17 2474.47,3336.31 2484.76,3344.29 2490.23,3347.12 2490.90,3344.80"/>
    </edge>
    <edge id=":belfast_37" function="internal">
        <lane id=":belfast_37_0" index="0" speed="9.34" length="38.31" shape="2459.38,3323.17 2468.05,3332.70 2474.48,3342.84 2475.92,3349.84 2469.66,3349.95"/>
    </edge>
    <edge id=":belfast_38" function="internal">
        <lane id=":belfast_38_0" index="0" speed="4.51" length="8.16" shape="2459.38,3323.17 2459.79,3324.94 2458.90,3327.22 2457.35,3328.95 2455.79,3329.06"/>
    </edge>
    <edge id=":belfast_39" function="internal">
        <lane id=":belfast_39_0" index="0" speed="4.73" length="9.24" shape="2459.38,3323.17 2460.58,3325.75 2460.43,3327.51 2458.93,3328.45 2456.09,3328.57"/>
    </edge>
    <edge id=":belfast_40" function="internal">
        <lane id=":belfast_40_0" index="0" speed="4.65" length="8.56" shape="2453.47,3332.87 2456.26,3334.37 2457.30,3334.69 2456.58,3333.84 2454.11,3331.81"/>
    </edge>
    <edge id=":belfast_41" function="internal">
        <lane id=":belfast_41_0" index="0" speed="8.36" length="32.40" shape="2453.47,3332.87 2464.02,3338.50 2467.97,3339.66 2465.33,3336.35 2456.09,3328.57"/>
    </edge>
    <edge id=":belfast_42" function="internal">
        <lane id=":belfast_42_0" index="0" speed="10.00" length="46.32" shape="2453.47,3332.87 2467.90,3340.00 2474.00,3340.25 2471.78,3333.62 2461.23,3320.13"/>
    </edge>
    <edge id=":belfast_43" function="internal">
        <lane id=":belfast_43_0" index="0" speed="10.00" length="50.54" shape="2453.47,3332.87 2468.69,3340.09 2475.49,3339.65 2473.86,3331.58 2463.82,3315.86"/>
    </edge>
    <edge id=":belfast_44" function="internal">
        <lane id=":belfast_44_0" index="0" speed="10.00" length="43.22" shape="2453.47,3332.87 2471.26,3342.43 2483.31,3347.65 2489.63,3348.53 2490.21,3345.07"/>
    </edge>
    <edge id=":belfast_45" function="internal">
        <lane id=":belfast_45_0" index="0" speed="10.00" length="43.24" shape="2453.47,3332.87 2471.26,3342.44 2483.32,3347.65 2489.64,3348.53 2490.23,3345.07"/>
    </edge>
    <edge id=":belfast_46" function="internal">
        <lane id=":belfast_46_0" index="0" speed="10.00" length="43.88" shape="2453.47,3332.87 2471.40,3342.47 2483.62,3347.66 2490.12,3348.44 2490.90,3344.80"/>
    </edge>
    <edge id=":belfast_47" function="internal">
        <lane id=":belfast_47_0" index="0" speed="7.47" length="25.80" shape="2453.47,3332.87 2459.89,3337.60 2466.83,3343.99 2471.14,3349.09 2469.66,3349.95"/>
    </edge>
    <edge id=":belfast_48" function="internal">
        <lane id=":belfast_48_0" index="0" speed="7.49" length="24.51" shape="2470.88,3346.99 2471.97,3346.93 2469.54,3344.38 2463.58,3339.34 2454.11,3331.81"/>
    </edge>
    <edge id=":belfast_49" function="internal">
        <lane id=":belfast_49_0" index="0" speed="8.82" length="34.70" shape="2470.88,3346.99 2476.43,3348.53 2475.81,3345.97 2469.03,3339.32 2456.09,3328.57"/>
    </edge>
    <edge id=":belfast_50" function="internal">
        <lane id=":belfast_50_0" index="0" speed="10.00" length="42.17" shape="2470.88,3346.99 2478.32,3348.66 2479.19,3344.73 2473.49,3335.22 2461.23,3320.13"/>
    </edge>
    <edge id=":belfast_51" function="internal">
        <lane id=":belfast_51_0" index="0" speed="10.00" length="45.65" shape="2470.88,3346.99 2478.87,3348.55 2480.35,3343.88 2475.33,3332.98 2463.82,3315.86"/>
    </edge>
    <edge id=":belfast_52" function="internal">
        <lane id=":belfast_52_0" index="0" speed="8.51" length="25.81" shape="2470.88,3346.99 2481.16,3350.64 2487.81,3351.54 2490.83,3349.69 2490.21,3345.07"/>
    </edge>
    <edge id=":belfast_53" function="internal">
        <lane id=":belfast_53_0" index="0" speed="8.51" length="25.83" shape="2470.88,3346.99 2481.17,3350.64 2487.82,3351.54 2490.84,3349.68 2490.23,3345.07"/>
    </edge>
    <edge id=":belfast_54" function="internal">
        <lane id=":belfast_54_0" index="0" speed="8.69" length="26.42" shape="2470.88,3346.99 2481.29,3350.66 2488.09,3351.52 2491.29,3349.56 2490.90,3344.80"/>
    </edge>
    <edge id=":belfast_55" function="internal">
        <lane id=":belfast_55_0" index="0" speed="3.65" length="4.67" shape="2470.88,3346.99 2471.69,3348.19 2471.75,3349.08 2471.07,3349.67 2469.66,3349.95"/>
    </edge>
    <edge id=":bray_0" function="internal">
        <lane id=":bray_0_0" index="0" speed="5.73" length="9.81" shape="2435.54,1658.20 2438.69,1658.19 2440.48,1657.30 2440.92,1655.52 2439.99,1652.85"/>
    </edge>
    <edge id=":bray_1" function="internal">
        <lane id=":bray_1_0" index="0" speed="9.75" length="27.26" shape="2435.54,1658.20 2441.26,1660.63 2442.95,1665.63 2441.59,1672.50 2438.16,1680.56"/>
    </edge>
    <edge id=":bray_2" function="internal">
        <lane id=":bray_2_0" index="0" speed="8.97" length="25.80" shape="2435.54,1658.20 2441.02,1660.65 2441.69,1665.45 2438.97,1671.66 2434.27,1678.33"/>
    </edge>
    <edge id=":bray_3" function="internal">
        <lane id=":bray_3_0" index="0" speed="6.86" length="18.49" shape="2435.54,1658.20 2442.00,1659.42 2444.46,1661.16 2442.94,1663.41 2437.42,1666.19"/>
    </edge>
    <edge id=":bray_4" function="internal">
        <lane id=":bray_4_0" index="0" speed="7.41" length="12.86" shape="2436.22,1663.22 2439.29,1661.43 2440.94,1659.11 2441.17,1656.25 2439.99,1652.85"/>
    </edge>
    <edge id=":bray_5" function="internal">
        <lane id=":bray_5_0" index="0" speed="7.94" length="22.92" shape="2436.22,1663.22 2440.92,1663.18 2442.17,1667.27 2440.93,1673.67 2438.16,1680.56"/>
    </edge>
    <edge id=":bray_6" function="internal">
        <lane id=":bray_6_0" index="0" speed="7.18" length="20.28" shape="2436.22,1663.22 2439.97,1663.31 2440.16,1667.10 2437.90,1672.73 2434.27,1678.33"/>
    </edge>
    <edge id=":bray_7" function="internal">
        <lane id=":bray_7_0" index="0" speed="3.65" length="4.67" shape="2436.22,1663.22 2437.63,1663.51 2438.30,1664.11 2438.23,1665.00 2437.42,1666.19"/>
    </edge>
    <edge id=":bray_8" function="internal">
        <lane id=":bray_8_0" index="0" speed="4.13" length="6.13" shape="2435.38,1678.97 2436.30,1676.92 2436.42,1676.14 2435.74,1676.61 2434.27,1678.33"/>
    </edge>
    <edge id=":bray_9" function="internal">
        <lane id=":bray_9_0" index="0" speed="6.63" length="15.47" shape="2435.38,1678.97 2438.26,1672.58 2439.56,1668.31 2439.28,1666.19 2437.42,1666.19"/>
    </edge>
    <edge id=":bray_10" function="internal">
        <lane id=":bray_10_0" index="0" speed="10.00" length="27.31" shape="2435.38,1678.97 2438.98,1670.60 2440.95,1663.46 2441.29,1657.55 2439.99,1652.85"/>
    </edge>
    <edge id=":bray_11" function="internal">
        <lane id=":bray_11_0" index="0" speed="3.65" length="4.68" shape="2435.38,1678.97 2436.67,1678.32 2437.57,1678.37 2438.07,1679.12 2438.16,1680.56"/>
    </edge>
    <edge id=":bray_12" function="internal">
        <lane id=":bray_12_0" index="0" speed="5.80" length="13.34" shape="2442.57,1681.89 2442.70,1677.12 2442.01,1675.31 2440.50,1676.45 2438.16,1680.56"/>
    </edge>
    <edge id=":bray_13" function="internal">
        <lane id=":bray_13_0" index="0" speed="6.89" length="17.99" shape="2442.57,1681.89 2442.56,1675.77 2441.18,1673.14 2438.41,1673.99 2434.27,1678.33"/>
    </edge>
    <edge id=":bray_14" function="internal">
        <lane id=":bray_14_0" index="0" speed="7.99" length="19.23" shape="2442.57,1681.89 2442.85,1674.00 2442.09,1668.75 2440.28,1666.15 2437.42,1666.19"/>
    </edge>
    <edge id=":bray_15" function="internal">
        <lane id=":bray_15_0" index="0" speed="10.00" length="29.27" shape="2442.57,1681.89 2442.67,1675.88 2442.30,1667.17 2441.42,1658.57 2439.99,1652.85"/>
    </edge>
    <edge id=":carlow_0" function="internal">
        <lane id=":carlow_0_0" index="0" speed="8.60" length="28.05" shape="1887.17,1161.72 1885.23,1158.72 1882.05,1160.55 1877.62,1167.21 1871.95,1178.69"/>
    </edge>
    <edge id=":carlow_1" function="internal">
        <lane id=":carlow_1_0" index="0" speed="10.00" length="22.95" shape="1887.17,1161.72 1885.04,1155.17 1882.16,1150.02 1878.55,1146.27 1874.19,1143.91"/>
    </edge>
    <edge id=":carlow_2" function="internal">
        <lane id=":carlow_2_0" index="0" speed="10.00" length="24.39" shape="1887.17,1161.72 1885.55,1156.75 1882.89,1150.26 1879.81,1144.01 1876.94,1139.71"/>
    </edge>
    <edge id=":carlow_3" function="internal">
        <lane id=":carlow_3_0" index="0" speed="10.00" length="21.10" shape="1887.17,1161.72 1886.15,1157.03 1885.26,1151.12 1885.06,1145.31 1886.13,1140.93"/>
    </edge>
    <edge id=":carlow_4" function="internal">
        <lane id=":carlow_4_0" index="0" speed="6.29" length="11.85" shape="1874.50,1152.54 1877.21,1149.76 1878.06,1147.40 1877.06,1145.45 1874.19,1143.91"/>
    </edge>
    <edge id=":carlow_5" function="internal">
        <lane id=":carlow_5_0" index="0" speed="8.04" length="15.06" shape="1874.50,1152.54 1877.71,1149.23 1879.19,1145.99 1878.93,1142.81 1876.94,1139.71"/>
    </edge>
    <edge id=":carlow_6" function="internal">
        <lane id=":carlow_6_0" index="0" speed="10.00" length="16.51" shape="1874.50,1152.54 1877.59,1150.00 1880.81,1147.16 1883.79,1144.11 1886.13,1140.93"/>
    </edge>
    <edge id=":carlow_7" function="internal">
        <lane id=":carlow_7_0" index="0" speed="9.12" length="34.69" shape="1874.50,1152.54 1879.71,1150.85 1879.71,1157.16 1876.47,1167.69 1871.95,1178.69"/>
    </edge>
    <edge id=":carlow_8" function="internal">
        <lane id=":carlow_8_0" index="0" speed="10.00" length="35.54" shape="1867.09,1176.44 1873.39,1163.33 1876.68,1153.54 1876.94,1147.06 1874.19,1143.91"/>
    </edge>
    <edge id=":carlow_9" function="internal">
        <lane id=":carlow_9_0" index="0" speed="10.00" length="39.29" shape="1867.09,1176.44 1873.69,1162.83 1877.53,1152.17 1878.61,1144.46 1876.94,1139.71"/>
    </edge>
    <edge id=":carlow_10" function="internal">
        <lane id=":carlow_10_0" index="0" speed="10.00" length="40.30" shape="1867.09,1176.44 1886.13,1140.93"/>
    </edge>
    <edge id=":carlow_11" function="internal">
        <lane id=":carlow_11_0" index="0" speed="4.43" length="7.82" shape="1867.09,1176.44 1869.15,1175.18 1870.64,1175.14 1871.58,1176.31 1871.95,1178.69"/>
    </edge>
    <edge id=":carlow_12" function="internal">
        <lane id=":carlow_12_0" index="0" speed="6.75" length="20.01" shape="1875.74,1179.97 1877.11,1172.72 1876.93,1170.10 1875.21,1172.08 1871.95,1178.69"/>
    </edge>
    <edge id=":carlow_13" function="internal">
        <lane id=":carlow_13_0" index="0" speed="10.00" length="37.89" shape="1875.74,1179.97 1878.41,1165.37 1879.05,1154.49 1877.64,1147.34 1874.19,1143.91"/>
    </edge>
    <edge id=":carlow_14" function="internal">
        <lane id=":carlow_14_0" index="0" speed="10.00" length="41.11" shape="1875.74,1179.97 1878.63,1164.89 1879.79,1153.16 1879.23,1144.76 1876.94,1139.71"/>
    </edge>
    <edge id=":carlow_15" function="internal">
        <lane id=":carlow_15_0" index="0" speed="10.00" length="40.44" shape="1875.74,1179.97 1877.47,1172.42 1880.39,1160.24 1883.59,1148.16 1886.13,1140.93"/>
    </edge>
    <edge id=":carlow_16" function="internal">
        <lane id=":carlow_16_0" index="0" speed="7.54" length="23.70" shape="1882.85,1166.26 1882.30,1162.39 1880.29,1163.18 1876.84,1168.61 1871.95,1178.69"/>
    </edge>