<?xml version="1.0" encoding="UTF-8"?>

<!-- generated on 2025-02-19 12:53:22 by Eclipse SUMO netconvert Version 1.18.0
<configuration xmlns:xsi="http://www.w3.org/2001/XMLSchema-instance" xsi:noNamespaceSchemaLocation="http://sumo.dlr.de/xsd/netconvertConfiguration.xsd">

    <input>
        <node-files value="nod.xml"/>
        <edge-files value="edge_xmls/08604.xml"/>
    </input>

    <output>
        <output-file value="networks/08604.net.xml"/>
    </output>

</configuration>
-->

<net version="1.16" junctionCornerDetail="5" limitTurnSpeed="5.50" xmlns:xsi="http://www.w3.org/2001/XMLSchema-instance" xsi:noNamespaceSchemaLocation="http://sumo.dlr.de/xsd/net_file.xsd">

    <location netOffset="-682.00,4368.00" convBoundary="0.00,0.00,2498.00,3881.00" origBoundary="682.00,-4368.00,3180.00,-487.00" projParameter="!"/>

    <edge id=":antrim_0" function="internal">
        <lane id=":antrim_0_0" index="0" speed="8.89" length="25.45" shape="2288.22,3460.00 2288.35,3471.20 2289.28,3478.69 2291.02,3482.46 2293.57,3482.52"/>
    </edge>
    <edge id=":antrim_1" function="internal">
        <lane id=":antrim_1_0" index="0" speed="10.00" length="43.70" shape="2288.22,3460.00 2286.80,3473.58 2283.16,3484.16 2277.31,3491.75 2269.25,3496.34"/>
    </edge>
    <edge id=":antrim_2" function="internal">
        <lane id=":antrim_2_0" index="0" speed="10.00" length="38.94" shape="2288.22,3460.00 2287.26,3472.47 2284.42,3481.74 2278.87,3487.03 2269.81,3487.56"/>
    </edge>
    <edge id=":antrim_3" function="internal">
        <lane id=":antrim_3_0" index="0" speed="9.12" length="33.08" shape="2288.22,3460.00 2285.31,3466.76 2278.65,3467.44 2270.71,3463.36 2263.96,3455.86"/>
    </edge>
    <edge id=":antrim_4" function="internal">
        <lane id=":antrim_4_0" index="0" speed="8.11" length="27.52" shape="2288.22,3460.00 2285.77,3465.08 2280.27,3464.50 2274.02,3459.85 2269.28,3452.73"/>
    </edge>
    <edge id=":antrim_5" function="internal">
        <lane id=":antrim_5_0" index="0" speed="7.53" length="24.29" shape="2288.22,3460.00 2286.10,3464.18 2281.42,3462.97 2276.22,3458.13 2272.56,3451.40"/>
    </edge>
    <edge id=":antrim_6" function="internal">
        <lane id=":antrim_6_0" index="0" speed="6.17" length="16.45" shape="2288.22,3460.00 2286.65,3461.15 2283.24,3458.63 2279.69,3454.31 2277.72,3450.08"/>
    </edge>
    <edge id=":antrim_7" function="internal">
        <lane id=":antrim_7_0" index="0" speed="10.00" length="37.23" shape="2283.29,3448.66 2285.45,3464.90 2287.88,3475.96 2290.59,3481.83 2293.57,3482.52"/>
    </edge>
    <edge id=":antrim_8" function="internal">
        <lane id=":antrim_8_0" index="0" speed="10.00" length="53.16" shape="2283.29,3448.66 2284.08,3467.18 2282.00,3481.30 2277.06,3491.02 2269.25,3496.34"/>
    </edge>
    <edge id=":antrim_9" function="internal">
        <lane id=":antrim_9_0" index="0" speed="10.00" length="47.41" shape="2283.29,3448.66 2284.32,3464.73 2283.09,3477.71 2278.59,3485.88 2269.81,3487.56"/>
    </edge>
    <edge id=":antrim_10" function="internal">
        <lane id=":antrim_10_0" index="0" speed="8.26" length="28.28" shape="2283.29,3448.66 2281.62,3455.97 2276.32,3460.21 2269.66,3460.47 2263.96,3455.86"/>
    </edge>
    <edge id=":antrim_11" function="internal">
        <lane id=":antrim_11_0" index="0" speed="6.01" length="15.50" shape="2283.29,3448.66 2282.15,3452.50 2278.86,3454.53 2275.10,3454.31 2272.56,3451.40"/>
    </edge>
    <edge id=":antrim_12" function="internal">
        <lane id=":antrim_12_0" index="0" speed="4.21" length="6.81" shape="2283.29,3448.66 2282.55,3449.95 2280.70,3450.80 2278.75,3450.93 2277.72,3450.08"/>
    </edge>
    <edge id=":antrim_13" function="internal">
        <lane id=":antrim_13_0" index="0" speed="7.04" length="21.31" shape="2283.29,3448.66 2281.31,3454.94 2278.32,3457.70 2274.31,3456.97 2269.28,3452.73"/>
    </edge>
    <edge id=":antrim_14" function="internal">
        <lane id=":antrim_14_0" index="0" speed="10.00" length="37.39" shape="2281.43,3449.14 2284.36,3465.19 2287.36,3476.11 2290.43,3481.88 2293.57,3482.52"/>
    </edge>
    <edge id=":antrim_15" function="internal">
        <lane id=":antrim_15_0" index="0" speed="10.00" length="52.46" shape="2281.43,3449.14 2283.05,3467.44 2281.56,3481.41 2276.96,3491.04 2269.25,3496.34"/>
    </edge>
    <edge id=":antrim_16" function="internal">
        <lane id=":antrim_16_0" index="0" speed="10.00" length="41.36" shape="2281.43,3449.14 2281.04,3459.01 2278.39,3472.07 2274.36,3483.27 2269.81,3487.56"/>
    </edge>
    <edge id=":antrim_17" function="internal">
        <lane id=":antrim_17_0" index="0" speed="7.84" length="25.77" shape="2281.43,3449.14 2280.13,3455.77 2275.32,3459.68 2269.19,3460.00 2263.96,3455.86"/>
    </edge>
    <edge id=":antrim_18" function="internal">
        <lane id=":antrim_18_0" index="0" speed="6.42" length="17.68" shape="2281.43,3449.14 2280.36,3453.55 2276.77,3455.98 2272.46,3455.89 2269.28,3452.73"/>
    </edge>
    <edge id=":antrim_19" function="internal">
        <lane id=":antrim_19_0" index="0" speed="5.50" length="12.86" shape="2281.43,3449.14 2280.59,3452.29 2277.85,3453.97 2274.69,3453.80 2272.56,3451.40"/>
    </edge>
    <edge id=":antrim_20" function="internal">
        <lane id=":antrim_20_0" index="0" speed="3.89" length="5.60" shape="2281.43,3449.14 2280.86,3450.77 2280.05,3451.47 2279.00,3451.24 2277.72,3450.08"/>
    </edge>
    <edge id=":antrim_21" function="internal">
        <lane id=":antrim_21_0" index="0" speed="4.56" length="8.18" shape="2278.77,3449.81 2277.79,3446.93 2277.29,3446.02 2277.27,3447.07 2277.72,3450.08"/>
    </edge>
    <edge id=":antrim_22" function="internal">
        <lane id=":antrim_22_0" index="0" speed="10.00" length="36.62" shape="2278.77,3449.81 2283.80,3465.00 2287.95,3475.51 2291.21,3481.35 2293.57,3482.52"/>
    </edge>
    <edge id=":antrim_23" function="internal">
        <lane id=":antrim_23_0" index="0" speed="10.00" length="52.75" shape="2278.77,3449.81 2282.77,3467.41 2282.52,3481.03 2278.01,3490.68 2269.25,3496.34"/>
    </edge>
    <edge id=":antrim_24" function="internal">
        <lane id=":antrim_24_0" index="0" speed="10.00" length="38.98" shape="2275.66,3450.61 2276.79,3460.13 2276.21,3472.73 2273.88,3483.51 2269.81,3487.56"/>
    </edge>
    <edge id=":antrim_25" function="internal">
        <lane id=":antrim_25_0" index="0" speed="6.46" length="17.89" shape="2275.66,3450.61 2275.25,3455.15 2272.00,3458.07 2267.65,3458.56 2263.96,3455.86"/>
    </edge>
    <edge id=":antrim_26" function="internal">
        <lane id=":antrim_26_0" index="0" speed="4.81" length="9.49" shape="2275.66,3450.61 2275.34,3452.93 2273.42,3454.30 2271.03,3454.36 2269.28,3452.73"/>
    </edge>
    <edge id=":antrim_27" function="internal">
        <lane id=":antrim_27_0" index="0" speed="3.65" length="4.68" shape="2275.66,3450.61 2275.18,3451.97 2274.50,3452.55 2273.63,3452.36 2272.56,3451.40"/>
    </edge>
    <edge id=":antrim_28" function="internal">
        <lane id=":antrim_28_0" index="0" speed="2.73" length="1.51" shape="2269.47,3452.61 2269.17,3452.15 2269.04,3452.01 2269.07,3452.21 2269.28,3452.73"/>
    </edge>
    <edge id=":antrim_29" function="internal">
        <lane id=":antrim_29_0" index="0" speed="5.80" length="14.04" shape="2269.47,3452.61 2272.34,3456.93 2273.81,3458.16 2273.88,3456.32 2272.56,3451.40"/>
    </edge>
    <edge id=":antrim_30" function="internal">
        <lane id=":antrim_30_0" index="0" speed="7.64" length="24.54" shape="2269.47,3452.61 2274.52,3459.89 2277.57,3461.90 2278.64,3458.63 2277.72,3450.08"/>
    </edge>
    <edge id=":antrim_31" function="internal">
        <lane id=":antrim_31_0" index="0" speed="10.00" length="39.15" shape="2269.47,3452.61 2278.40,3466.68 2285.40,3476.35 2290.45,3481.63 2293.57,3482.52"/>
    </edge>
    <edge id=":antrim_32" function="internal">
        <lane id=":antrim_32_0" index="0" speed="10.00" length="43.37" shape="2266.72,3454.24 2269.91,3463.73 2271.99,3477.37 2272.06,3489.97 2269.25,3496.34"/>
    </edge>
    <edge id=":antrim_33" function="internal">
        <lane id=":antrim_33_0" index="0" speed="10.00" length="42.13" shape="2266.72,3454.24 2273.55,3466.58 2277.96,3478.01 2277.52,3485.88 2269.81,3487.56"/>
    </edge>
    <edge id=":antrim_34" function="internal">
        <lane id=":antrim_34_0" index="0" speed="3.65" length="4.67" shape="2266.72,3454.24 2266.63,3455.68 2266.15,3456.43 2265.25,3456.49 2263.96,3455.86"/>
    </edge>
    <edge id=":antrim_35" function="internal">
        <lane id=":antrim_35_0" index="0" speed="5.72" length="14.21" shape="2262.44,3456.75 2265.84,3460.85 2267.23,3462.07 2266.60,3460.41 2263.96,3455.86"/>
    </edge>
    <edge id=":antrim_36" function="internal">
        <lane id=":antrim_36_0" index="0" speed="8.19" length="29.63" shape="2262.44,3456.75 2269.52,3464.87 2273.01,3466.91 2272.93,3462.86 2269.28,3452.73"/>
    </edge>
    <edge id=":antrim_37" function="internal">
        <lane id=":antrim_37_0" index="0" speed="8.80" length="33.36" shape="2262.44,3456.75 2270.37,3465.61 2274.70,3467.67 2275.43,3462.93 2272.56,3451.40"/>
    </edge>
    <edge id=":antrim_38" function="internal">
        <lane id=":antrim_38_0" index="0" speed="9.54" length="37.43" shape="2262.44,3456.75 2271.25,3466.22 2276.72,3468.26 2278.88,3462.88 2277.72,3450.08"/>
    </edge>
    <edge id=":antrim_39" function="internal">
        <lane id=":antrim_39_0" index="0" speed="10.00" length="41.87" shape="2262.44,3456.75 2273.36,3469.66 2282.19,3478.27 2288.93,3482.55 2293.57,3482.52"/>
    </edge>
    <edge id=":antrim_40" function="internal">
        <lane id=":antrim_40_0" index="0" speed="10.00" length="41.62" shape="2262.44,3456.75 2266.75,3465.56 2270.34,3478.34 2271.68,3490.21 2269.25,3496.34"/>
    </edge>
    <edge id=":antrim_41" function="internal">
        <lane id=":antrim_41_0" index="0" speed="9.57" length="34.39" shape="2262.44,3456.75 2267.12,3464.73 2271.37,3475.37 2273.01,3484.40 2269.81,3487.56"/>
    </edge>
    <edge id=":antrim_42" function="internal">
        <lane id=":antrim_42_0" index="0" speed="7.34" length="23.88" shape="2263.13,3463.43 2268.54,3468.41 2270.48,3468.81 2268.95,3464.62 2263.96,3455.86"/>
    </edge>
    <edge id=":antrim_43" function="internal">
        <lane id=":antrim_43_0" index="0" speed="8.54" length="31.08" shape="2263.13,3463.43 2270.36,3469.73 2273.79,3470.04 2273.43,3464.38 2269.28,3452.73"/>
    </edge>
    <edge id=":antrim_44" function="internal">
        <lane id=":antrim_44_0" index="0" speed="9.03" length="33.76" shape="2263.13,3463.43 2270.98,3470.07 2275.17,3470.28 2275.69,3464.05 2272.56,3451.40"/>
    </edge>
    <edge id=":antrim_45" function="internal">
        <lane id=":antrim_45_0" index="0" speed="9.70" length="37.10" shape="2263.13,3463.43 2271.71,3470.39 2276.99,3470.49 2279.00,3463.72 2277.72,3450.08"/>
    </edge>
    <edge id=":antrim_46" function="internal">
        <lane id=":antrim_46_0" index="0" speed="10.00" length="37.31" shape="2263.13,3463.43 2273.71,3473.45 2282.30,3479.97 2288.93,3483.00 2293.57,3482.52"/>
    </edge>
    <edge id=":antrim_47" function="internal">
        <lane id=":antrim_47_0" index="0" speed="10.00" length="41.62" shape="2263.13,3463.43 2271.89,3473.39 2277.23,3482.78 2277.04,3490.73 2269.25,3496.34"/>
    </edge>
    <edge id=":antrim_48" function="internal">
        <lane id=":antrim_48_0" index="0" speed="8.54" length="28.32" shape="2263.13,3463.43 2267.80,3469.93 2271.74,3478.31 2273.05,3485.28 2269.81,3487.56"/>
    </edge>
    <edge id=":antrim_49" function="internal">
        <lane id=":antrim_49_0" index="0" speed="9.17" length="32.14" shape="2271.09,3481.65 2274.82,3481.62 2274.87,3477.31 2271.25,3468.72 2263.96,3455.86"/>
    </edge>
    <edge id=":antrim_50" function="internal">
        <lane id=":antrim_50_0" index="0" speed="9.82" length="34.52" shape="2271.09,3481.65 2275.49,3481.55 2276.65,3476.69 2274.58,3467.09 2269.28,3452.73"/>
    </edge>
    <edge id=":antrim_51" function="internal">
        <lane id=":antrim_51_0" index="0" speed="10.00" length="35.77" shape="2271.09,3481.65 2275.83,3481.52 2277.66,3476.43 2276.56,3466.39 2272.56,3451.40"/>
    </edge>
    <edge id=":antrim_52" function="internal">
        <lane id=":antrim_52_0" index="0" speed="10.00" length="37.50" shape="2271.09,3481.65 2276.33,3481.50 2279.18,3476.19 2279.64,3465.72 2277.72,3450.08"/>
    </edge>
    <edge id=":antrim_53" function="internal">
        <lane id=":antrim_53_0" index="0" speed="10.00" length="23.21" shape="2271.09,3481.65 2278.03,3483.80 2284.08,3484.66 2289.27,3484.23 2293.57,3482.52"/>
    </edge>
    <edge id=":antrim_54" function="internal">
        <lane id=":antrim_54_0" index="0" speed="7.35" length="19.76" shape="2271.09,3481.65 2275.14,3484.81 2275.98,3489.10 2273.90,3493.34 2269.25,3496.34"/>
    </edge>
    <edge id=":antrim_55" function="internal">
        <lane id=":antrim_55_0" index="0" speed="4.73" length="8.83" shape="2271.09,3481.65 2272.99,3483.61 2273.41,3485.25 2272.35,3486.57 2269.81,3487.56"/>
    </edge>
    <edge id=":antrim_56" function="internal">
        <lane id=":antrim_56_0" index="0" speed="5.78" length="12.47" shape="2268.23,3493.31 2272.63,3491.50 2274.36,3489.93 2273.42,3488.62 2269.81,3487.56"/>
    </edge>
    <edge id=":antrim_57" function="internal">
        <lane id=":antrim_57_0" index="0" speed="10.00" length="42.57" shape="2268.23,3493.31 2273.72,3489.02 2274.84,3481.35 2271.59,3470.30 2263.96,3455.86"/>
    </edge>
    <edge id=":antrim_58" function="internal">
        <lane id=":antrim_58_0" index="0" speed="10.00" length="44.80" shape="2268.23,3493.31 2274.16,3488.79 2276.31,3480.52 2274.68,3468.50 2269.28,3452.73"/>
    </edge>
    <edge id=":antrim_59" function="internal">
        <lane id=":antrim_59_0" index="0" speed="10.00" length="45.96" shape="2268.23,3493.31 2274.41,3488.69 2277.20,3480.17 2276.58,3467.74 2272.56,3451.40"/>
    </edge>
    <edge id=":antrim_60" function="internal">
        <lane id=":antrim_60_0" index="0" speed="10.00" length="47.51" shape="2268.23,3493.31 2274.81,3488.58 2278.58,3479.81 2279.55,3466.97 2277.72,3450.08"/>
    </edge>
    <edge id=":antrim_61" function="internal">
        <lane id=":antrim_61_0" index="0" speed="10.00" length="27.57" shape="2268.23,3493.31 2273.58,3491.31 2281.07,3488.29 2288.48,3485.08 2293.57,3482.52"/>
    </edge>
    <edge id=":antrim_62" function="internal">
        <lane id=":antrim_62_0" index="0" speed="3.65" length="4.67" shape="2268.23,3493.31 2269.62,3493.68 2270.25,3494.31 2270.13,3495.20 2269.25,3496.34"/>
    </edge>
    <edge id=":athlone_0" function="internal">
        <lane id=":athlone_0_0" index="0" speed="9.53" length="38.78" shape="1256.93,2012.89 1255.79,1994.07 1254.52,1981.83 1253.12,1976.14 1251.59,1977.02"/>
    </edge>
    <edge id=":athlone_1" function="internal">
        <lane id=":athlone_1_0" index="0" speed="10.00" length="43.68" shape="1256.93,2012.89 1255.53,1992.57 1253.65,1979.16 1251.30,1972.67 1248.46,1973.09"/>
    </edge>
    <edge id=":athlone_2" function="internal">
        <lane id=":athlone_2_0" index="0" speed="10.00" length="57.04" shape="1256.93,2012.89 1255.15,1990.53 1252.30,1974.12 1248.36,1963.64 1243.34,1959.11"/>
    </edge>
    <edge id=":athlone_3" function="internal">
        <lane id=":athlone_3_0" index="0" speed="10.00" length="61.06" shape="1256.93,2012.89 1255.83,2002.65 1253.30,1984.33 1249.97,1965.27 1246.46,1952.83"/>
    </edge>
    <edge id=":athlone_4" function="internal">
        <lane id=":athlone_4_0" index="0" speed="10.00" length="66.28" shape="1256.93,2012.89 1257.49,2001.07 1259.18,1979.63 1261.46,1958.36 1263.76,1947.04"/>
    </edge>
    <edge id=":athlone_5" function="internal">
        <lane id=":athlone_5_0" index="0" speed="10.00" length="66.18" shape="1256.93,2012.89 1257.51,2001.09 1259.25,1979.68 1261.58,1958.45 1263.94,1947.17"/>
    </edge>
    <edge id=":athlone_6" function="internal">
        <lane id=":athlone_6_0" index="0" speed="10.00" length="67.18" shape="1256.93,2012.89 1257.27,1989.28 1260.90,1971.56 1267.80,1959.74 1277.99,1953.81"/>
    </edge>
    <edge id=":athlone_7" function="internal">
        <lane id=":athlone_7_0" index="0" speed="10.00" length="60.34" shape="1256.93,2012.89 1256.85,1992.61 1259.51,1976.39 1266.13,1966.62 1277.91,1965.67"/>
    </edge>
    <edge id=":athlone_8" function="internal">
        <lane id=":athlone_8_0" index="0" speed="9.70" length="39.22" shape="1256.93,2012.89 1258.18,2000.43 1262.31,1989.86 1268.12,1984.96 1274.39,1989.50"/>
    </edge>
    <edge id=":athlone_9" function="internal">
        <lane id=":athlone_9_0" index="0" speed="7.03" length="21.96" shape="1256.93,2012.89 1258.80,2008.74 1263.50,2008.85 1268.69,2012.20 1272.02,2017.82"/>
    </edge>
    <edge id=":athlone_10" function="internal">
        <lane id=":athlone_10_0" index="0" speed="10.00" length="44.92" shape="1262.09,2020.32 1258.12,1999.73 1255.06,1985.65 1252.88,1978.08 1251.59,1977.02"/>
    </edge>
    <edge id=":athlone_11" function="internal">
        <lane id=":athlone_11_0" index="0" speed="10.00" length="50.17" shape="1262.09,2020.32 1257.61,1997.78 1253.85,1982.39 1250.80,1974.16 1248.46,1973.09"/>
    </edge>
    <edge id=":athlone_12" function="internal">
        <lane id=":athlone_12_0" index="0" speed="10.00" length="64.74" shape="1262.09,2020.32 1256.82,1994.37 1251.94,1975.51 1247.45,1963.76 1243.34,1959.11"/>
    </edge>
    <edge id=":athlone_13" function="internal">
        <lane id=":athlone_13_0" index="0" speed="10.00" length="69.33" shape="1262.09,2020.32 1259.52,2006.88 1255.29,1986.23 1250.56,1965.76 1246.46,1952.83"/>
    </edge>
    <edge id=":athlone_14" function="internal">
        <lane id=":athlone_14_0" index="0" speed="10.00" length="74.61" shape="1262.09,2020.32 1258.31,1994.74 1257.33,1974.00 1259.15,1958.10 1263.76,1947.04"/>
    </edge>
    <edge id=":athlone_15" function="internal">
        <lane id=":athlone_15_0" index="0" speed="10.00" length="73.41" shape="1265.20,2019.54 1261.03,1992.92 1259.44,1971.99 1260.41,1956.74 1263.94,1947.17"/>
    </edge>
    <edge id=":athlone_16" function="internal">
        <lane id=":athlone_16_0" index="0" speed="10.00" length="72.30" shape="1265.20,2019.54 1261.85,1993.03 1262.87,1973.24 1268.25,1960.17 1277.99,1953.81"/>
    </edge>
    <edge id=":athlone_17" function="internal">
        <lane id=":athlone_17_0" index="0" speed="10.00" length="64.62" shape="1265.20,2019.54 1262.02,1997.55 1261.97,1979.10 1266.72,1967.40 1277.91,1965.67"/>
    </edge>
    <edge id=":athlone_18" function="internal">
        <lane id=":athlone_18_0" index="0" speed="9.77" length="41.98" shape="1265.20,2019.54 1264.06,2005.48 1265.32,1992.42 1268.81,1985.41 1274.39,1989.50"/>
    </edge>
    <edge id=":athlone_19" function="internal">
        <lane id=":athlone_19_0" index="0" speed="4.26" length="7.03" shape="1265.20,2019.54 1272.02,2017.82"/>
    </edge>
    <edge id=":athlone_20" function="internal">
        <lane id=":athlone_20_0" index="0" speed="10.00" length="48.62" shape="1268.91,2018.60 1262.87,1996.39 1257.97,1982.05 1254.21,1975.60 1251.59,1977.02"/>
    </edge>
    <edge id=":athlone_21" function="internal">
        <lane id=":athlone_21_0" index="0" speed="10.00" length="52.91" shape="1268.91,2018.60 1262.51,1995.48 1256.97,1980.19 1252.28,1972.72 1248.46,1973.09"/>
    </edge>
    <edge id=":athlone_22" function="internal">
        <lane id=":athlone_22_0" index="0" speed="10.00" length="65.88" shape="1268.91,2018.60 1261.98,1993.77 1255.40,1975.57 1249.19,1964.02 1243.34,1959.11"/>
    </edge>
    <edge id=":athlone_23" function="internal">
        <lane id=":athlone_23_0" index="0" speed="10.00" length="69.52" shape="1268.91,2018.60 1265.53,2007.53 1258.93,1987.24 1251.71,1966.19 1246.46,1952.83"/>
    </edge>
    <edge id=":athlone_24" function="internal">
        <lane id=":athlone_24_0" index="0" speed="10.00" length="72.92" shape="1268.91,2018.60 1263.10,1992.41 1260.30,1971.75 1260.52,1956.63 1263.76,1947.04"/>
    </edge>
    <edge id=":athlone_25" function="internal">
        <lane id=":athlone_25_0" index="0" speed="10.00" length="72.81" shape="1268.91,2018.60 1263.11,1992.41 1260.35,1971.78 1260.63,1956.70 1263.94,1947.17"/>
    </edge>
    <edge id=":athlone_26" function="internal">
        <lane id=":athlone_26_0" index="0" speed="10.00" length="71.23" shape="1268.91,2018.60 1263.91,1992.52 1263.75,1973.02 1268.45,1960.12 1277.99,1953.81"/>
    </edge>
    <edge id=":athlone_27" function="internal">
        <lane id=":athlone_27_0" index="0" speed="10.00" length="54.65" shape="1268.91,2018.60 1268.56,2006.45 1270.35,1988.25 1273.67,1972.00 1277.91,1965.67"/>
    </edge>
    <edge id=":athlone_28" function="internal">
        <lane id=":athlone_28_0" index="0" speed="9.38" length="39.52" shape="1268.91,2018.60 1266.91,2005.32 1267.04,1992.73 1269.49,1985.80 1274.39,1989.50"/>
    </edge>
    <edge id=":athlone_29" function="internal">
        <lane id=":athlone_29_0" index="0" speed="3.65" length="4.67" shape="1268.91,2018.60 1269.40,2017.24 1270.08,2016.66 1270.95,2016.85 1272.02,2017.82"/>
    </edge>
    <edge id=":athlone_30" function="internal">
        <lane id=":athlone_30_0" index="0" speed="8.79" length="33.84" shape="1272.92,1990.35 1270.24,1987.63 1269.72,1991.17 1271.34,2000.97 1275.12,2017.04"/>
    </edge>
    <edge id=":athlone_31" function="internal">
        <lane id=":athlone_31_0" index="0" speed="9.58" length="30.93" shape="1272.92,1990.35 1265.38,1979.83 1259.31,1974.11 1254.72,1973.17 1251.59,1977.02"/>
    </edge>
    <edge id=":athlone_32" function="internal">
        <lane id=":athlone_32_0" index="0" speed="10.00" length="33.82" shape="1272.92,1990.35 1264.99,1979.30 1258.28,1972.73 1252.77,1970.66 1248.46,1973.09"/>
    </edge>
    <edge id=":athlone_33" function="internal">
        <lane id=":athlone_33_0" index="0" speed="10.00" length="43.16" shape="1272.92,1990.35 1267.84,1983.88 1258.92,1973.66 1249.61,1963.97 1243.34,1959.11"/>
    </edge>
    <edge id=":athlone_34" function="internal">
        <lane id=":athlone_34_0" index="0" speed="10.00" length="45.93" shape="1272.92,1990.35 1268.28,1983.96 1260.38,1973.35 1252.13,1961.86 1246.46,1952.83"/>
    </edge>
    <edge id=":athlone_35" function="internal">
        <lane id=":athlone_35_0" index="0" speed="10.00" length="46.56" shape="1272.92,1990.35 1265.28,1976.62 1261.21,1964.83 1260.70,1954.97 1263.76,1947.04"/>
    </edge>
    <edge id=":athlone_36" function="internal">
        <lane id=":athlone_36_0" index="0" speed="10.00" length="46.45" shape="1272.92,1990.35 1265.29,1976.63 1261.25,1964.85 1260.80,1955.04 1263.94,1947.17"/>
    </edge>
    <edge id=":athlone_37" function="internal">
        <lane id=":athlone_37_0" index="0" speed="10.00" length="45.79" shape="1272.92,1990.35 1266.25,1978.07 1263.85,1967.49 1267.26,1959.20 1277.99,1953.81"/>
    </edge>
    <edge id=":athlone_38" function="internal">
        <lane id=":athlone_38_0" index="0" speed="9.44" length="33.31" shape="1272.92,1990.35 1268.62,1980.98 1267.54,1972.14 1270.40,1966.23 1277.91,1965.67"/>
    </edge>
    <edge id=":athlone_39" function="internal">
        <lane id=":athlone_39_0" index="0" speed="3.04" length="2.49" shape="1272.92,1990.35 1272.97,1989.58 1273.23,1989.18 1273.71,1989.16 1274.39,1989.50"/>
    </edge>
    <edge id=":athlone_40" function="internal">
        <lane id=":athlone_40_0" index="0" speed="6.99" length="22.12" shape="1278.72,1956.85 1286.31,1953.53 1288.72,1951.91 1285.95,1952.00 1277.99,1953.81"/>
    </edge>
    <edge id=":athlone_41" function="internal">
        <lane id=":athlone_41_0" index="0" speed="5.49" length="10.33" shape="1278.72,1956.85 1275.66,1958.47 1274.66,1959.97 1275.70,1961.34 1278.80,1962.60"/>
    </edge>
    <edge id=":athlone_42" function="internal">
        <lane id=":athlone_42_0" index="0" speed="10.00" length="38.37" shape="1278.72,1956.85 1271.40,1961.79 1268.24,1968.88 1269.24,1978.11 1274.39,1989.50"/>
    </edge>
    <edge id=":athlone_43" function="internal">
        <lane id=":athlone_43_0" index="0" speed="10.00" length="63.83" shape="1278.72,1956.85 1272.10,1963.24 1269.30,1975.40 1270.30,1993.33 1275.12,2017.04"/>
    </edge>
    <edge id=":athlone_44" function="internal">
        <lane id=":athlone_44_0" index="0" speed="10.00" length="34.56" shape="1278.72,1956.85 1268.39,1961.66 1260.42,1966.63 1254.82,1971.75 1251.59,1977.02"/>
    </edge>
    <edge id=":athlone_45" function="internal">
        <lane id=":athlone_45_0" index="0" speed="10.00" length="34.46" shape="1278.72,1956.85 1270.53,1960.44 1261.29,1964.93 1253.20,1969.43 1248.46,1973.09"/>
    </edge>
    <edge id=":athlone_46" function="internal">
        <lane id=":athlone_46_0" index="0" speed="10.00" length="35.27" shape="1277.96,1953.71 1269.33,1956.34 1258.99,1958.34 1249.48,1959.37 1243.34,1959.11"/>
    </edge>
    <edge id=":athlone_47" function="internal">
        <lane id=":athlone_47_0" index="0" speed="10.00" length="31.48" shape="1277.96,1953.71 1267.65,1957.07 1259.45,1957.81 1253.34,1955.93 1249.34,1951.44"/>
    </edge>
    <edge id=":athlone_48" function="internal">
        <lane id=":athlone_48_0" index="0" speed="6.88" length="18.02" shape="1277.96,1953.71 1273.28,1954.11 1267.93,1952.73 1264.04,1950.17 1263.76,1947.04"/>
    </edge>
    <edge id=":athlone_49" function="internal">
        <lane id=":athlone_49_0" index="0" speed="6.82" length="17.78" shape="1277.96,1953.71 1273.34,1954.10 1268.04,1952.74 1264.20,1950.23 1263.94,1947.17"/>
    </edge>
    <edge id=":athlone_50" function="internal">
        <lane id=":athlone_50_0" index="0" speed="7.24" length="18.92" shape="1266.36,1948.91 1264.61,1952.78 1265.97,1954.88 1270.42,1955.22 1277.99,1953.81"/>
    </edge>
    <edge id=":athlone_51" function="internal">
        <lane id=":athlone_51_0" index="0" speed="8.85" length="21.98" shape="1266.36,1948.91 1264.95,1952.91 1266.55,1956.53 1271.17,1959.76 1278.80,1962.60"/>
    </edge>
    <edge id=":athlone_52" function="internal">
        <lane id=":athlone_52_0" index="0" speed="10.00" length="43.24" shape="1266.36,1948.91 1263.69,1956.01 1264.14,1965.14 1267.70,1976.30 1274.39,1989.50"/>
    </edge>
    <edge id=":athlone_53" function="internal">
        <lane id=":athlone_53_0" index="0" speed="10.00" length="69.37" shape="1266.36,1948.91 1264.58,1956.51 1265.45,1970.40 1268.96,1990.58 1275.12,2017.04"/>
    </edge>
    <edge id=":athlone_54" function="internal">
        <lane id=":athlone_54_0" index="0" speed="10.00" length="31.77" shape="1266.36,1948.91 1263.10,1954.38 1258.58,1962.75 1254.25,1971.24 1251.59,1977.02"/>
    </edge>
    <edge id=":athlone_55" function="internal">
        <lane id=":athlone_55_0" index="0" speed="10.00" length="30.08" shape="1266.36,1948.91 1248.46,1973.09"/>
    </edge>
    <edge id=":athlone_56" function="internal">
        <lane id=":athlone_56_0" index="0" speed="10.00" length="27.02" shape="1266.36,1948.91 1261.29,1954.77 1255.76,1958.43 1249.78,1959.88 1243.34,1959.11"/>
    </edge>
    <edge id=":athlone_57" function="internal">
        <lane id=":athlone_57_0" index="0" speed="7.95" length="19.27" shape="1266.36,1948.91 1262.69,1952.01 1257.60,1953.86 1252.64,1953.87 1249.34,1951.44"/>
    </edge>
    <edge id=":athlone_58" function="internal">
        <lane id=":athlone_58_0" index="0" speed="10.00" length="213.05" shape="1266.36,1948.91 1311.84,1883.22 1326.59,1861.03 1310.63,1882.35 1263.94,1947.17"/>
    </edge>
    <edge id=":athlone_59" function="internal">
        <lane id=":athlone_59_0" index="0" speed="3.65" length="4.67" shape="1266.36,1948.91 1265.01,1949.42 1264.13,1949.27 1263.71,1948.48 1263.76,1947.04"/>
    </edge>
    <edge id=":athlone_60" function="internal">
        <lane id=":athlone_60_0" index="0" speed="7.05" length="18.23" shape="1267.00,1949.37 1265.10,1953.00 1266.29,1954.95 1270.59,1955.22 1277.99,1953.81"/>
    </edge>
    <edge id=":athlone_61" function="internal">
        <lane id=":athlone_61_0" index="0" speed="8.61" length="21.36" shape="1267.00,1949.37 1265.41,1953.20 1266.85,1956.69 1271.31,1959.82 1278.80,1962.60"/>
    </edge>
    <edge id=":athlone_62" function="internal">
        <lane id=":athlone_62_0" index="0" speed="10.00" length="42.84" shape="1267.00,1949.37 1264.06,1956.28 1264.31,1965.28 1267.76,1976.35 1274.39,1989.50"/>
    </edge>
    <edge id=":athlone_63" function="internal">
        <lane id=":athlone_63_0" index="0" speed="10.00" length="68.94" shape="1267.00,1949.37 1264.97,1956.89 1265.64,1970.67 1269.03,1990.72 1275.12,2017.04"/>
    </edge>
    <edge id=":athlone_64" function="internal">
        <lane id=":athlone_64_0" index="0" speed="10.00" length="31.68" shape="1267.00,1949.37 1263.55,1954.70 1258.82,1962.93 1254.32,1971.29 1251.59,1977.02"/>
    </edge>
    <edge id=":athlone_65" function="internal">
        <lane id=":athlone_65_0" index="0" speed="10.00" length="30.10" shape="1267.00,1949.37 1248.46,1973.09"/>
    </edge>
    <edge id=":athlone_66" function="internal">
        <lane id=":athlone_66_0" index="0" speed="10.00" length="27.28" shape="1267.00,1949.37 1261.62,1955.03 1255.89,1958.54 1249.79,1959.90 1243.34,1959.11"/>
    </edge>
    <edge id=":athlone_67" function="internal">
        <lane id=":athlone_67_0" index="0" speed="8.17" length="19.85" shape="1267.00,1949.37 1263.09,1952.41 1257.82,1954.15 1252.73,1954.01 1249.34,1951.44"/>
    </edge>
    <edge id=":athlone_68" function="internal">
        <lane id=":athlone_68_0" index="0" speed="3.69" length="4.72" shape="1267.00,1949.37 1266.04,1949.60 1264.79,1949.01 1263.83,1948.01 1263.76,1947.04"/>
    </edge>
    <edge id=":athlone_69" function="internal">
        <lane id=":athlone_69_0" index="0" speed="3.88" length="5.50" shape="1267.00,1949.37 1265.41,1949.96 1264.37,1949.80 1263.88,1948.87 1263.94,1947.17"/>
    </edge>