<?xml version="1.0" encoding="UTF-8"?>

<!-- generated on 2025-02-19 12:53:58 by Eclipse SUMO netconvert Version 1.18.0
<configuration xmlns:xsi="http://www.w3.org/2001/XMLSchema-instance" xsi:noNamespaceSchemaLocation="http://sumo.dlr.de/xsd/netconvertConfiguration.xsd">

    <input>
        <node-files value="nod.xml"/>
        <edge-files value="edge_xmls/08645.xml"/>
    </input>

    <output>
        <output-file value="networks/08645.net.xml"/>
    </output>

</configuration>
-->

<net version="1.16" junctionCornerDetail="5" limitTurnSpeed="5.50" xmlns:xsi="http://www.w3.org/2001/XMLSchema-instance" xsi:noNamespaceSchemaLocation="http://sumo.dlr.de/xsd/net_file.xsd">

    <location netOffset="-682.00,4368.00" convBoundary="0.00,0.00,2498.00,3881.00" origBoundary="682.00,-4368.00,3180.00,-487.00" projParameter="!"/>

    <edge id=":antrim_0" function="internal">
        <lane id=":antrim_0_0" index="0" speed="4.04" length="6.10" shape="2288.78,3434.35 2288.75,3436.63 2288.81,3437.38 2288.95,3436.62 2289.18,3434.34"/>
    </edge>
    <edge id=":antrim_1" function="internal">
        <lane id=":antrim_1_0" index="0" speed="10.00" length="57.20" shape="2288.78,3434.35 2286.16,3446.50 2280.26,3464.49 2273.55,3480.65 2268.53,3487.32"/>
    </edge>
    <edge id=":antrim_2" function="internal">
        <lane id=":antrim_2_0" index="0" speed="10.00" length="58.79" shape="2288.78,3434.35 2287.62,3455.01 2284.55,3471.94 2278.78,3482.03 2269.51,3482.15"/>
    </edge>
    <edge id=":antrim_3" function="internal">
        <lane id=":antrim_3_0" index="0" speed="10.00" length="48.92" shape="2288.78,3434.35 2282.73,3441.36 2269.13,3447.63 2254.41,3451.05 2244.96,3449.48"/>
    </edge>
    <edge id=":antrim_4" function="internal">
        <lane id=":antrim_4_0" index="0" speed="10.00" length="53.33" shape="2288.78,3434.35 2285.05,3449.05 2276.23,3458.37 2264.80,3460.32 2253.22,3452.93"/>
    </edge>
    <edge id=":antrim_5" function="internal">
        <lane id=":antrim_5_0" index="0" speed="9.86" length="38.26" shape="2288.78,3434.35 2284.48,3441.48 2274.85,3447.94 2264.32,3451.36 2257.33,3449.34"/>
    </edge>
    <edge id=":antrim_6" function="internal">
        <lane id=":antrim_6_0" index="0" speed="9.52" length="36.28" shape="2288.78,3434.35 2284.71,3441.28 2275.59,3447.28 2265.65,3450.19 2259.08,3447.85"/>
    </edge>
    <edge id=":antrim_7" function="internal">
        <lane id=":antrim_7_0" index="0" speed="8.41" length="29.63" shape="2288.78,3434.35 2285.63,3440.87 2278.64,3446.34 2271.07,3448.75 2266.17,3446.09"/>
    </edge>
    <edge id=":antrim_8" function="internal">
        <lane id=":antrim_8_0" index="0" speed="6.58" length="19.01" shape="2288.78,3434.35 2287.02,3439.26 2283.20,3444.27 2279.23,3447.23 2277.01,3445.98"/>
    </edge>
    <edge id=":antrim_9" function="internal">
        <lane id=":antrim_9_0" index="0" speed="8.18" length="31.23" shape="2285.00,3434.53 2285.81,3446.05 2286.78,3449.86 2287.90,3445.95 2289.18,3434.34"/>
    </edge>
    <edge id=":antrim_10" function="internal">
        <lane id=":antrim_10_0" index="0" speed="10.00" length="55.85" shape="2285.00,3434.53 2283.26,3446.65 2278.66,3464.58 2273.11,3480.69 2268.53,3487.32"/>
    </edge>
    <edge id=":antrim_11" function="internal">
        <lane id=":antrim_11_0" index="0" speed="10.00" length="50.87" shape="2285.00,3434.53 2283.44,3446.07 2279.24,3462.62 2274.04,3477.03 2269.51,3482.15"/>
    </edge>
    <edge id=":antrim_12" function="internal">
        <lane id=":antrim_12_0" index="0" speed="10.00" length="45.56" shape="2285.00,3434.53 2279.80,3441.50 2267.48,3447.71 2253.90,3451.07 2244.96,3449.48"/>
    </edge>
    <edge id=":antrim_13" function="internal">
        <lane id=":antrim_13_0" index="0" speed="10.00" length="39.97" shape="2285.00,3434.53 2281.02,3442.10 2271.43,3449.60 2260.67,3454.16 2253.22,3452.93"/>
    </edge>
    <edge id=":antrim_14" function="internal">
        <lane id=":antrim_14_0" index="0" speed="9.34" length="35.18" shape="2285.00,3434.53 2281.56,3441.63 2273.19,3448.03 2263.81,3451.38 2257.33,3449.34"/>
    </edge>
    <edge id=":antrim_15" function="internal">
        <lane id=":antrim_15_0" index="0" speed="9.01" length="33.20" shape="2285.00,3434.53 2281.78,3441.42 2273.93,3447.37 2265.14,3450.22 2259.08,3447.85"/>
    </edge>
    <edge id=":antrim_16" function="internal">
        <lane id=":antrim_16_0" index="0" speed="8.39" length="30.38" shape="2285.00,3434.53 2282.98,3443.10 2277.59,3449.15 2271.21,3450.78 2266.17,3446.09"/>
    </edge>
    <edge id=":antrim_17" function="internal">
        <lane id=":antrim_17_0" index="0" speed="6.01" length="15.88" shape="2285.00,3434.53 2283.96,3438.92 2281.39,3443.72 2278.62,3446.78 2277.01,3445.98"/>
    </edge>
    <edge id=":antrim_18" function="internal">
        <lane id=":antrim_18_0" index="0" speed="9.09" length="37.58" shape="2280.84,3445.07 2283.13,3455.87 2285.29,3457.68 2287.30,3450.50 2289.18,3434.34"/>
    </edge>
    <edge id=":antrim_19" function="internal">
        <lane id=":antrim_19_0" index="0" speed="10.00" length="45.09" shape="2280.84,3445.07 2280.32,3455.53 2277.40,3469.91 2273.12,3482.42 2268.53,3487.32"/>
    </edge>
    <edge id=":antrim_20" function="internal">
        <lane id=":antrim_20_0" index="0" speed="10.00" length="40.47" shape="2280.84,3445.07 2280.54,3455.04 2278.08,3468.16 2274.17,3479.00 2269.51,3482.15"/>
    </edge>
    <edge id=":antrim_21" function="internal">
        <lane id=":antrim_21_0" index="0" speed="10.00" length="39.35" shape="2280.84,3445.07 2276.69,3450.36 2265.75,3452.95 2253.39,3452.71 2244.96,3449.48"/>
    </edge>
    <edge id=":antrim_22" function="internal">
        <lane id=":antrim_22_0" index="0" speed="9.04" length="32.76" shape="2280.84,3445.07 2277.91,3450.96 2269.70,3454.83 2260.15,3455.79 2253.22,3452.93"/>
    </edge>
    <edge id=":antrim_23" function="internal">
        <lane id=":antrim_23_0" index="0" speed="8.19" length="27.83" shape="2280.84,3445.07 2278.31,3449.99 2271.21,3452.63 2263.06,3452.56 2257.33,3449.34"/>
    </edge>
    <edge id=":antrim_24" function="internal">
        <lane id=":antrim_24_0" index="0" speed="7.81" length="25.60" shape="2280.84,3445.07 2278.45,3449.43 2271.81,3451.51 2264.24,3451.07 2259.08,3447.85"/>
    </edge>
    <edge id=":antrim_25" function="internal">
        <lane id=":antrim_25_0" index="0" speed="6.36" length="17.27" shape="2280.84,3445.07 2279.14,3447.91 2274.50,3449.09 2269.37,3448.52 2266.17,3446.09"/>
    </edge>
    <edge id=":antrim_26" function="internal">
        <lane id=":antrim_26_0" index="0" speed="3.93" length="5.75" shape="2280.84,3445.07 2280.23,3446.73 2279.38,3447.44 2278.31,3447.19 2277.01,3445.98"/>
    </edge>
    <edge id=":antrim_27" function="internal">
        <lane id=":antrim_27_0" index="0" speed="4.18" length="6.71" shape="2277.42,3445.85 2276.82,3443.42 2276.55,3442.63 2276.61,3443.49 2277.01,3445.98"/>
    </edge>
    <edge id=":antrim_28" function="internal">
        <lane id=":antrim_28_0" index="0" speed="9.71" length="41.82" shape="2277.42,3445.85 2281.10,3457.56 2284.28,3459.54 2286.98,3451.80 2289.18,3434.34"/>
    </edge>
    <edge id=":antrim_29" function="internal">
        <lane id=":antrim_29_0" index="0" speed="10.00" length="43.64" shape="2277.42,3445.85 2277.76,3456.14 2276.05,3470.27 2272.81,3482.55 2268.53,3487.32"/>
    </edge>
    <edge id=":antrim_30" function="internal">
        <lane id=":antrim_30_0" index="0" speed="10.00" length="39.08" shape="2277.42,3445.85 2278.00,3455.67 2276.77,3468.58 2273.89,3479.19 2269.51,3482.15"/>
    </edge>
    <edge id=":antrim_31" function="internal">
        <lane id=":antrim_31_0" index="0" speed="9.46" length="36.17" shape="2277.42,3445.85 2274.09,3450.96 2264.29,3453.29 2252.95,3452.81 2244.96,3449.48"/>
    </edge>
    <edge id=":antrim_32" function="internal">
        <lane id=":antrim_32_0" index="0" speed="8.45" length="29.33" shape="2277.42,3445.85 2275.22,3451.31 2268.09,3454.86 2259.57,3455.68 2253.22,3452.93"/>
    </edge>
    <edge id=":antrim_33" function="internal">
        <lane id=":antrim_33_0" index="0" speed="7.51" length="23.81" shape="2277.42,3445.85 2275.48,3449.98 2269.39,3452.19 2262.30,3452.10 2257.33,3449.34"/>
    </edge>
    <edge id=":antrim_34" function="internal">
        <lane id=":antrim_34_0" index="0" speed="7.12" length="21.56" shape="2277.42,3445.85 2275.60,3449.43 2269.98,3451.06 2263.50,3450.59 2259.08,3447.85"/>
    </edge>
    <edge id=":antrim_35" function="internal">
        <lane id=":antrim_35_0" index="0" speed="5.59" length="13.22" shape="2277.42,3445.85 2276.23,3447.91 2272.67,3448.63 2268.67,3448.02 2266.17,3446.09"/>
    </edge>
    <edge id=":antrim_36" function="internal">
        <lane id=":antrim_36_0" index="0" speed="6.20" length="17.16" shape="2275.65,3446.40 2273.82,3440.30 2272.92,3438.36 2272.95,3440.57 2273.93,3446.94"/>
    </edge>
    <edge id=":antrim_37" function="internal">
        <lane id=":antrim_37_0" index="0" speed="9.98" length="43.54" shape="2275.65,3446.40 2280.07,3458.30 2283.79,3460.26 2286.83,3452.27 2289.18,3434.34"/>
    </edge>
    <edge id=":antrim_38" function="internal">
        <lane id=":antrim_38_0" index="0" speed="10.00" length="42.85" shape="2275.65,3446.40 2276.45,3456.57 2275.37,3470.52 2272.65,3482.64 2268.53,3487.32"/>
    </edge>
    <edge id=":antrim_39" function="internal">
        <lane id=":antrim_39_0" index="0" speed="10.00" length="38.35" shape="2275.65,3446.40 2276.69,3456.11 2276.11,3468.86 2273.76,3479.32 2269.51,3482.15"/>
    </edge>
    <edge id=":antrim_40" function="internal">
        <lane id=":antrim_40_0" index="0" speed="9.18" length="34.53" shape="2275.65,3446.40 2272.75,3451.38 2263.55,3453.53 2252.72,3452.88 2244.96,3449.48"/>
    </edge>
    <edge id=":antrim_41" function="internal">
        <lane id=":antrim_41_0" index="0" speed="8.09" length="27.22" shape="2275.65,3446.40 2273.75,3451.42 2267.12,3454.70 2259.15,3455.47 2253.22,3452.93"/>
    </edge>
    <edge id=":antrim_42" function="internal">
        <lane id=":antrim_42_0" index="0" speed="7.14" length="21.69" shape="2275.65,3446.40 2273.98,3450.09 2268.42,3452.02 2261.89,3451.88 2257.33,3449.34"/>
    </edge>
    <edge id=":antrim_43" function="internal">
        <lane id=":antrim_43_0" index="0" speed="6.74" length="19.45" shape="2275.65,3446.40 2274.10,3449.55 2269.01,3450.90 2263.10,3450.37 2259.08,3447.85"/>
    </edge>
    <edge id=":antrim_44" function="internal">
        <lane id=":antrim_44_0" index="0" speed="5.55" length="13.24" shape="2275.65,3446.40 2275.06,3449.18 2272.22,3449.97 2268.72,3448.90 2266.17,3446.09"/>
    </edge>
    <edge id=":antrim_45" function="internal">
        <lane id=":antrim_45_0" index="0" speed="3.57" length="4.18" shape="2274.46,3446.77 2273.97,3445.31 2273.71,3444.85 2273.70,3445.39 2273.93,3446.94"/>
    </edge>
    <edge id=":antrim_46" function="internal">
        <lane id=":antrim_46_0" index="0" speed="10.00" length="44.61" shape="2274.46,3446.77 2279.37,3458.76 2283.47,3460.68 2286.73,3452.54 2289.18,3434.34"/>
    </edge>
    <edge id=":antrim_47" function="internal">
        <lane id=":antrim_47_0" index="0" speed="10.00" length="42.35" shape="2274.46,3446.77 2275.56,3456.86 2274.91,3470.68 2272.55,3482.69 2268.53,3487.32"/>
    </edge>
    <edge id=":antrim_48" function="internal">
        <lane id=":antrim_48_0" index="0" speed="10.00" length="37.90" shape="2274.46,3446.77 2275.81,3456.41 2275.67,3469.05 2273.68,3479.40 2269.51,3482.15"/>
    </edge>
    <edge id=":antrim_49" function="internal">
        <lane id=":antrim_49_0" index="0" speed="8.99" length="33.43" shape="2274.46,3446.77 2271.85,3451.67 2263.04,3453.69 2252.57,3452.93 2244.96,3449.48"/>
    </edge>
    <edge id=":antrim_50" function="internal">
        <lane id=":antrim_50_0" index="0" speed="7.85" length="25.80" shape="2274.46,3446.77 2272.74,3451.49 2266.46,3454.60 2258.86,3455.33 2253.22,3452.93"/>
    </edge>
    <edge id=":antrim_51" function="internal">
        <lane id=":antrim_51_0" index="0" speed="6.48" length="18.03" shape="2274.46,3446.77 2273.08,3449.63 2268.35,3450.80 2262.83,3450.22 2259.08,3447.85"/>
    </edge>
    <edge id=":antrim_52" function="internal">
        <lane id=":antrim_52_0" index="0" speed="4.86" length="9.74" shape="2274.46,3446.77 2273.67,3448.14 2271.03,3448.38 2268.04,3447.65 2266.17,3446.09"/>
    </edge>
    <edge id=":antrim_53" function="internal">
        <lane id=":antrim_53_0" index="0" speed="7.62" length="25.29" shape="2274.46,3446.77 2271.14,3453.84 2267.18,3456.62 2262.58,3455.12 2257.33,3449.34"/>
    </edge>
    <edge id=":antrim_54" function="internal">
        <lane id=":antrim_54_0" index="0" speed="6.33" length="17.21" shape="2269.43,3444.72 2272.35,3451.24 2274.07,3453.79 2274.60,3452.35 2273.93,3446.94"/>
    </edge>
    <edge id=":antrim_55" function="internal">
        <lane id=":antrim_55_0" index="0" speed="10.00" length="49.35" shape="2269.43,3444.72 2276.49,3458.18 2282.14,3460.93 2286.37,3452.99 2289.18,3434.34"/>
    </edge>
    <edge id=":antrim_56" function="internal">
        <lane id=":antrim_56_0" index="0" speed="10.00" length="43.86" shape="2269.43,3444.72 2271.60,3455.01 2272.61,3469.55 2271.80,3482.32 2268.53,3487.32"/>
    </edge>
    <edge id=":antrim_57" function="internal">
        <lane id=":antrim_57_0" index="0" speed="10.00" length="39.32" shape="2269.43,3444.72 2271.86,3454.55 2273.37,3467.89 2272.93,3479.01 2269.51,3482.15"/>
    </edge>
    <edge id=":antrim_58" function="internal">
        <lane id=":antrim_58_0" index="0" speed="8.26" length="28.95" shape="2269.43,3444.72 2267.76,3449.54 2260.57,3452.20 2251.69,3452.32 2244.96,3449.48"/>
    </edge>
    <edge id=":antrim_59" function="internal">
        <lane id=":antrim_59_0" index="0" speed="7.08" length="21.32" shape="2269.43,3444.72 2268.42,3449.01 2263.66,3452.65 2257.73,3454.38 2253.22,3452.93"/>
    </edge>
    <edge id=":antrim_60" function="internal">
        <lane id=":antrim_60_0" index="0" speed="6.45" length="18.09" shape="2269.43,3444.72 2269.26,3449.08 2265.92,3451.76 2261.31,3452.07 2257.33,3449.34"/>
    </edge>
    <edge id=":antrim_61" function="internal">
        <lane id=":antrim_61_0" index="0" speed="5.91" length="15.14" shape="2269.43,3444.72 2269.22,3448.27 2266.29,3450.29 2262.34,3450.30 2259.08,3447.85"/>
    </edge>
    <edge id=":antrim_62" function="internal">
        <lane id=":antrim_62_0" index="0" speed="3.78" length="5.16" shape="2269.43,3444.72 2269.13,3446.28 2268.48,3447.03 2267.50,3446.97 2266.17,3446.09"/>
    </edge>
    <edge id=":antrim_63" function="internal">
        <lane id=":antrim_63_0" index="0" speed="7.68" length="27.15" shape="2261.55,3445.75 2267.31,3454.75 2269.99,3457.81 2269.62,3454.92 2266.17,3446.09"/>
    </edge>
    <edge id=":antrim_64" function="internal">
        <lane id=":antrim_64_0" index="0" speed="8.65" length="32.01" shape="2261.55,3445.75 2268.68,3456.26 2273.12,3459.97 2274.87,3456.86 2273.93,3446.94"/>
    </edge>
    <edge id=":antrim_65" function="internal">
        <lane id=":antrim_65_0" index="0" speed="10.00" length="55.44" shape="2261.55,3445.75 2272.01,3459.38 2280.10,3462.02 2285.82,3453.67 2289.18,3434.34"/>
    </edge>
    <edge id=":antrim_66" function="internal">
        <lane id=":antrim_66_0" index="0" speed="10.00" length="43.44" shape="2261.55,3445.75 2265.51,3455.62 2269.23,3469.85 2270.85,3482.42 2268.53,3487.32"/>
    </edge>
    <edge id=":antrim_67" function="internal">
        <lane id=":antrim_67_0" index="0" speed="9.82" length="39.12" shape="2261.55,3445.75 2265.79,3455.19 2270.06,3468.27 2272.07,3479.18 2269.51,3482.15"/>
    </edge>
    <edge id=":antrim_68" function="internal">
        <lane id=":antrim_68_0" index="0" speed="7.29" length="23.50" shape="2261.55,3445.75 2261.96,3450.69 2257.58,3453.17 2251.04,3452.88 2244.96,3449.48"/>
    </edge>
    <edge id=":antrim_69" function="internal">
        <lane id=":antrim_69_0" index="0" speed="5.54" length="12.99" shape="2261.55,3445.75 2261.39,3448.59 2258.99,3451.56 2255.79,3453.43 2253.22,3452.93"/>
    </edge>
    <edge id=":antrim_70" function="internal">
        <lane id=":antrim_70_0" index="0" speed="3.89" length="5.54" shape="2261.55,3445.75 2257.33,3449.34"/>
    </edge>
    <edge id=":antrim_71" function="internal">
        <lane id=":antrim_71_0" index="0" speed="3.67" length="4.73" shape="2261.55,3445.75 2261.72,3447.20 2261.37,3448.03 2260.49,3448.25 2259.08,3447.85"/>
    </edge>
    <edge id=":antrim_72" function="internal">
        <lane id=":antrim_72_0" index="0" speed="6.70" length="20.38" shape="2255.61,3450.80 2260.62,3456.48 2262.58,3458.12 2261.48,3455.74 2257.33,3449.34"/>
    </edge>
    <edge id=":antrim_73" function="internal">
        <lane id=":antrim_73_0" index="0" speed="7.96" length="29.16" shape="2255.61,3450.80 2262.77,3458.79 2265.74,3460.96 2264.51,3457.31 2259.08,3447.85"/>
    </edge>
    <edge id=":antrim_74" function="internal">
        <lane id=":antrim_74_0" index="0" speed="9.41" length="39.41" shape="2255.61,3450.80 2265.60,3461.48 2270.69,3464.25 2270.88,3459.12 2266.17,3446.09"/>
    </edge>
    <edge id=":antrim_75" function="internal">
        <lane id=":antrim_75_0" index="0" speed="9.79" length="38.98" shape="2255.61,3450.80 2265.67,3461.04 2272.07,3463.81 2274.83,3459.11 2273.93,3446.94"/>
    </edge>
    <edge id=":antrim_76" function="internal">
        <lane id=":antrim_76_0" index="0" speed="10.00" length="59.64" shape="2255.61,3450.80 2268.63,3462.62 2278.57,3463.81 2285.42,3454.38 2289.18,3434.34"/>
    </edge>
    <edge id=":antrim_77" function="internal">
        <lane id=":antrim_77_0" index="0" speed="10.00" length="48.56" shape="2255.61,3450.80 2266.04,3463.90 2274.06,3476.49 2276.07,3485.36 2268.53,3487.32"/>
    </edge>
    <edge id=":antrim_78" function="internal">
        <lane id=":antrim_78_0" index="0" speed="9.18" length="36.24" shape="2255.61,3450.80 2261.32,3459.14 2267.67,3470.57 2271.47,3479.95 2269.51,3482.15"/>
    </edge>
    <edge id=":antrim_79" function="internal">
        <lane id=":antrim_79_0" index="0" speed="5.04" length="10.73" shape="2255.61,3450.80 2244.96,3449.48"/>
    </edge>
    <edge id=":antrim_80" function="internal">
        <lane id=":antrim_80_0" index="0" speed="3.65" length="4.67" shape="2255.61,3450.80 2255.81,3452.23 2255.48,3453.06 2254.61,3453.30 2253.22,3452.93"/>
    </edge>
    <edge id=":antrim_81" function="internal">
        <lane id=":antrim_81_0" index="0" speed="8.35" length="32.63" shape="2242.33,3452.78 2252.01,3460.02 2255.67,3461.89 2253.32,3458.37 2244.96,3449.48"/>
    </edge>
    <edge id=":antrim_82" function="internal">
        <lane id=":antrim_82_0" index="0" speed="9.06" length="37.81" shape="2242.33,3452.78 2255.09,3462.25 2261.16,3465.43 2260.53,3462.32 2253.22,3452.93"/>
    </edge>
    <edge id=":antrim_83" function="internal">
        <lane id=":antrim_83_0" index="0" speed="10.00" length="44.95" shape="2242.33,3452.78 2257.02,3463.34 2264.42,3466.28 2264.53,3461.61 2257.33,3449.34"/>
    </edge>
    <edge id=":antrim_84" function="internal">
        <lane id=":antrim_84_0" index="0" speed="10.00" length="47.10" shape="2242.33,3452.78 2257.53,3463.55 2265.38,3466.32 2265.90,3461.08 2259.08,3447.85"/>
    </edge>
    <edge id=":antrim_85" function="internal">
        <lane id=":antrim_85_0" index="0" speed="10.00" length="51.48" shape="2242.33,3452.78 2258.74,3464.05 2268.19,3466.69 2270.67,3460.70 2266.17,3446.09"/>
    </edge>
    <edge id=":antrim_86" function="internal">
        <lane id=":antrim_86_0" index="0" speed="10.00" length="56.74" shape="2242.33,3452.78 2260.02,3464.51 2271.70,3467.28 2277.36,3461.11 2277.01,3445.98"/>
    </edge>
    <edge id=":antrim_87" function="internal">
        <lane id=":antrim_87_0" index="0" speed="10.00" length="70.65" shape="2242.33,3452.78 2261.13,3464.06 2275.21,3464.74 2284.56,3454.83 2289.18,3434.34"/>
    </edge>
    <edge id=":antrim_88" function="internal">
        <lane id=":antrim_88_0" index="0" speed="10.00" length="54.02" shape="2242.33,3452.78 2257.19,3464.97 2269.93,3477.02 2275.41,3485.59 2268.53,3487.32"/>
    </edge>
    <edge id=":antrim_89" function="internal">
        <lane id=":antrim_89_0" index="0" speed="10.00" length="58.44" shape="2242.33,3452.78 2260.14,3449.93 2270.60,3453.87 2273.73,3464.61 2269.51,3482.15"/>
    </edge>
    <edge id=":antrim_90" function="internal">
        <lane id=":antrim_90_0" index="0" speed="4.45" length="7.22" shape="2269.13,3484.18 2271.64,3484.52 2272.54,3484.30 2271.83,3483.51 2269.51,3482.15"/>
    </edge>
    <edge id=":antrim_91" function="internal">
        <lane id=":antrim_91_0" index="0" speed="10.00" length="46.63" shape="2269.13,3484.18 2272.17,3482.87 2269.16,3476.65 2260.09,3465.53 2244.96,3449.48"/>
    </edge>
    <edge id=":antrim_92" function="internal">
        <lane id=":antrim_92_0" index="0" speed="10.00" length="40.37" shape="2269.13,3484.18 2272.90,3483.13 2271.51,3477.57 2264.95,3467.50 2253.22,3452.93"/>
    </edge>
    <edge id=":antrim_93" function="internal">
        <lane id=":antrim_93_0" index="0" speed="10.00" length="42.25" shape="2269.13,3484.18 2273.42,3482.95 2272.88,3476.74 2267.52,3465.53 2257.33,3449.34"/>
    </edge>
    <edge id=":antrim_94" function="internal">
        <lane id=":antrim_94_0" index="0" speed="10.00" length="43.16" shape="2269.13,3484.18 2273.61,3482.87 2273.43,3476.39 2268.59,3464.71 2259.08,3447.85"/>
    </edge>
    <edge id=":antrim_95" function="internal">
        <lane id=":antrim_95_0" index="0" speed="10.00" length="43.66" shape="2269.13,3484.18 2274.28,3482.81 2275.51,3476.00 2272.80,3463.76 2266.17,3446.09"/>
    </edge>
    <edge id=":antrim_96" function="internal">
        <lane id=":antrim_96_0" index="0" speed="10.00" length="44.02" shape="2269.13,3484.18 2275.21,3482.85 2278.55,3476.04 2279.15,3463.75 2277.01,3445.98"/>
    </edge>
    <edge id=":antrim_97" function="internal">
        <lane id=":antrim_97_0" index="0" speed="10.00" length="57.57" shape="2269.13,3484.18 2276.17,3482.16 2281.86,3473.18 2286.19,3457.24 2289.18,3434.34"/>
    </edge>
    <edge id=":antrim_98" function="internal">
        <lane id=":antrim_98_0" index="0" speed="3.65" length="4.67" shape="2269.13,3484.18 2270.16,3485.19 2270.40,3486.05 2269.86,3486.76 2268.53,3487.32"/>
    </edge>
    <edge id=":antrim_99" function="internal">
        <lane id=":antrim_99_0" index="0" speed="5.46" length="10.00" shape="2269.50,3493.03 2272.13,3491.11 2272.85,3489.52 2271.65,3488.26 2268.53,3487.32"/>
    </edge>
    <edge id=":antrim_100" function="internal">
        <lane id=":antrim_100_0" index="0" speed="6.99" length="15.14" shape="2269.50,3493.03 2273.20,3490.21 2274.43,3487.45 2273.20,3484.77 2269.51,3482.15"/>
    </edge>
    <edge id=":antrim_101" function="internal">
        <lane id=":antrim_101_0" index="0" speed="10.00" length="53.56" shape="2269.50,3493.03 2272.32,3487.78 2269.17,3478.78 2260.05,3466.01 2244.96,3449.48"/>
    </edge>
    <edge id=":antrim_102" function="internal">
        <lane id=":antrim_102_0" index="0" speed="10.00" length="47.00" shape="2269.50,3493.03 2272.96,3487.92 2271.40,3479.54 2264.82,3467.88 2253.22,3452.93"/>
    </edge>
    <edge id=":antrim_103" function="internal">
        <lane id=":antrim_103_0" index="0" speed="10.00" length="48.85" shape="2269.50,3493.03 2273.40,3487.59 2272.67,3478.50 2267.32,3465.75 2257.33,3449.34"/>
    </edge>
    <edge id=":antrim_104" function="internal">
        <lane id=":antrim_104_0" index="0" speed="10.00" length="52.77" shape="2271.11,3495.80 2275.11,3490.04 2274.44,3480.13 2269.10,3466.07 2259.08,3447.85"/>
    </edge>
    <edge id=":antrim_105" function="internal">
        <lane id=":antrim_105_0" index="0" speed="10.00" length="52.84" shape="2271.11,3495.80 2275.63,3489.89 2276.31,3479.63 2273.16,3465.03 2266.17,3446.09"/>
    </edge>
    <edge id=":antrim_106" function="internal">
        <lane id=":antrim_106_0" index="0" speed="10.00" length="52.33" shape="2271.11,3495.80 2276.40,3489.82 2279.15,3479.53 2279.35,3464.92 2277.01,3445.98"/>
    </edge>
    <edge id=":antrim_107" function="internal">
        <lane id=":antrim_107_0" index="0" speed="10.00" length="65.42" shape="2271.11,3495.80 2277.25,3489.04 2282.31,3476.55 2286.29,3458.31 2289.18,3434.34"/>
    </edge>
    <edge id=":athlone_0" function="internal">
        <lane id=":athlone_0_0" index="0" speed="10.00" length="49.06" shape="1255.75,1988.77 1256.24,1980.26 1258.00,1965.80 1260.90,1950.75 1264.80,1940.48"/>
        <lane id=":athlone_0_1" index="1" speed="10.00" length="49.06" shape="1255.75,1988.77 1256.71,1980.47 1259.49,1966.46 1263.41,1951.88 1267.78,1941.81"/>
    </edge>
    <edge id=":athlone_2" function="internal">
        <lane id=":athlone_2_0" index="0" speed="3.65" length="4.67" shape="1255.75,1988.77 1256.49,1987.53 1257.27,1987.09 1258.09,1987.45 1258.95,1988.61"/>
    </edge>
    <edge id=":athlone_3" function="internal">
        <lane id=":athlone_3_0" index="0" speed="6.25" length="17.33" shape="1255.75,1988.77 1256.79,1986.24 1259.51,1988.17 1262.54,1992.74 1264.50,1998.18"/>
    </edge>
    <edge id=":athlone_4" function="internal">
        <lane id=":athlone_4_0" index="0" speed="6.59" length="18.85" shape="1255.75,1988.77 1257.13,1985.64 1260.69,1986.80 1264.71,1990.79 1267.46,1996.15"/>
    </edge>
    <edge id=":athlone_5" function="internal">
        <lane id=":athlone_5_0" index="0" speed="8.84" length="30.64" shape="1255.75,1988.77 1257.99,1981.97 1264.08,1980.11 1271.71,1982.53 1278.55,1988.56"/>
    </edge>
    <edge id=":athlone_6" function="internal">
        <lane id=":athlone_6_0" index="0" speed="10.00" length="36.11" shape="1255.75,1988.77 1255.87,1977.37 1257.98,1968.60 1262.95,1963.68 1271.65,1963.86"/>
    </edge>
    <edge id=":athlone_7" function="internal">
        <lane id=":athlone_7_0" index="0" speed="10.00" length="51.96" shape="1255.75,1988.77 1257.22,1975.73 1263.04,1965.77 1273.22,1958.89 1287.75,1955.10"/>
    </edge>
    <edge id=":athlone_8" function="internal">
        <lane id=":athlone_8_0" index="0" speed="10.00" length="53.35" shape="1255.75,1988.77 1257.18,1975.56 1262.88,1964.95 1272.85,1956.94 1287.08,1951.51"/>
    </edge>
    <edge id=":athlone_9" function="internal">
        <lane id=":athlone_9_0" index="0" speed="10.00" length="49.51" shape="1255.75,1988.77 1256.73,1975.50 1261.08,1964.53 1268.80,1955.85 1279.88,1949.46"/>
    </edge>
    <edge id=":athlone_10" function="internal">
        <lane id=":athlone_10_0" index="0" speed="7.74" length="21.81" shape="1255.75,1988.77 1254.93,1978.92 1253.61,1972.81 1251.80,1970.44 1249.48,1971.80"/>
    </edge>
    <edge id=":athlone_11" function="internal">
        <lane id=":athlone_11_0" index="0" speed="10.00" length="48.62" shape="1255.75,1988.77 1257.08,1979.88 1260.46,1964.89 1264.42,1950.07 1267.49,1941.68"/>
    </edge>
    <edge id=":athlone_12" function="internal">
        <lane id=":athlone_12_0" index="0" speed="10.00" length="49.58" shape="1255.75,1988.77 1256.56,1979.66 1258.71,1964.14 1261.28,1948.70 1263.33,1939.82"/>
    </edge>
    <edge id=":athlone_13" function="internal">
        <lane id=":athlone_13_0" index="0" speed="10.00" length="51.56" shape="1255.75,1988.77 1255.16,1979.99 1254.16,1964.79 1253.38,1948.67 1253.46,1937.10"/>
        <lane id=":athlone_13_1" index="1" speed="10.00" length="51.56" shape="1255.75,1988.77 1255.66,1980.03 1255.75,1964.95 1256.07,1948.93 1256.65,1937.41"/>
    </edge>
    <edge id=":athlone_15" function="internal">
        <lane id=":athlone_15_0" index="0" speed="10.00" length="51.64" shape="1255.75,1988.77 1254.42,1980.11 1251.57,1965.21 1248.35,1949.42 1245.93,1938.08"/>
    </edge>
    <edge id=":athlone_16" function="internal">
        <lane id=":athlone_16_0" index="0" speed="10.00" length="39.64" shape="1255.75,1988.77 1254.26,1981.28 1250.94,1969.41 1246.99,1957.83 1243.62,1951.19"/>
    </edge>
    <edge id=":athlone_17" function="internal">
        <lane id=":athlone_17_0" index="0" speed="8.00" length="27.70" shape="1274.51,1991.33 1268.70,1983.66 1265.59,1981.91 1265.18,1986.07 1267.46,1996.15"/>
    </edge>
    <edge id=":athlone_18" function="internal">
        <lane id=":athlone_18_0" index="0" speed="5.84" length="13.32" shape="1274.51,1991.33 1271.78,1987.85 1270.17,1987.18 1269.67,1989.30 1270.28,1994.22"/>
    </edge>
    <edge id=":athlone_19" function="internal">
        <lane id=":athlone_19_0" index="0" speed="8.62" length="29.68" shape="1274.51,1991.33 1267.30,1981.90 1262.30,1978.31 1259.52,1980.54 1258.95,1988.61"/>
    </edge>
    <edge id=":athlone_20" function="internal">
        <lane id=":athlone_20_0" index="0" speed="10.00" length="34.85" shape="1274.51,1991.33 1265.97,1979.75 1258.95,1972.64 1253.45,1969.99 1249.48,1971.80"/>
    </edge>
    <edge id=":athlone_21" function="internal">
        <lane id=":athlone_21_0" index="0" speed="10.00" length="50.66" shape="1274.51,1991.33 1269.01,1983.80 1259.36,1971.01 1249.57,1958.35 1243.62,1951.19"/>
    </edge>
    <edge id=":athlone_22" function="internal">
        <lane id=":athlone_22_0" index="0" speed="10.00" length="60.52" shape="1274.51,1991.33 1269.18,1982.63 1259.99,1966.81 1250.93,1949.94 1245.93,1938.08"/>
    </edge>
    <edge id=":athlone_23" function="internal">
        <lane id=":athlone_23_0" index="0" speed="10.00" length="58.43" shape="1274.51,1991.33 1269.91,1982.50 1262.58,1966.39 1255.96,1949.19 1253.46,1937.10"/>
    </edge>
    <edge id=":athlone_24" function="internal">
        <lane id=":athlone_24_0" index="0" speed="10.00" length="54.86" shape="1274.51,1991.33 1266.19,1976.80 1261.55,1963.37 1260.60,1951.05 1263.33,1939.82"/>
    </edge>
    <edge id=":athlone_25" function="internal">