<?xml version="1.0" encoding="UTF-8"?>

<!-- generated on 2025-02-19 12:55:37 by Eclipse SUMO netconvert Version 1.18.0
<configuration xmlns:xsi="http://www.w3.org/2001/XMLSchema-instance" xsi:noNamespaceSchemaLocation="http://sumo.dlr.de/xsd/netconvertConfiguration.xsd">

    <input>
        <node-files value="nod.xml"/>
        <edge-files value="edge_xmls/08813.xml"/>
    </input>

    <output>
        <output-file value="networks/08813.net.xml"/>
    </output>

</configuration>
-->

<net version="1.16" junctionCornerDetail="5" limitTurnSpeed="5.50" xmlns:xsi="http://www.w3.org/2001/XMLSchema-instance" xsi:noNamespaceSchemaLocation="http://sumo.dlr.de/xsd/net_file.xsd">

    <location netOffset="-682.00,4368.00" convBoundary="0.00,0.00,2498.00,3881.00" origBoundary="682.00,-4368.00,3180.00,-487.00" projParameter="!"/>

    <edge id=":antrim_0" function="internal">
        <lane id=":antrim_0_0" index="0" speed="10.00" length="15.81" shape="2293.64,3486.22 2290.27,3488.14 2286.67,3489.95 2282.98,3491.57 2279.35,3492.93"/>
    </edge>
    <edge id=":antrim_1" function="internal">
        <lane id=":antrim_1_0" index="0" speed="10.00" length="40.21" shape="2293.64,3486.22 2288.63,3486.74 2281.49,3483.48 2272.23,3476.45 2260.83,3465.65"/>
    </edge>
    <edge id=":antrim_2" function="internal">
        <lane id=":antrim_2_0" index="0" speed="10.00" length="39.19" shape="2293.64,3486.22 2288.85,3486.54 2282.58,3482.55 2274.84,3474.25 2265.63,3461.65"/>
    </edge>
    <edge id=":antrim_3" function="internal">
        <lane id=":antrim_3_0" index="0" speed="9.11" length="26.83" shape="2293.64,3486.22 2288.97,3486.73 2286.27,3482.30 2285.07,3474.64 2284.91,3465.45"/>
    </edge>
    <edge id=":antrim_4" function="internal">
        <lane id=":antrim_4_0" index="0" speed="10.00" length="30.34" shape="2289.66,3465.58 2288.20,3476.52 2286.00,3484.72 2283.05,3490.19 2279.35,3492.93"/>
    </edge>
    <edge id=":antrim_5" function="internal">
        <lane id=":antrim_5_0" index="0" speed="9.61" length="32.21" shape="2289.66,3465.58 2285.70,3470.22 2277.29,3471.32 2267.85,3469.56 2260.83,3465.65"/>
    </edge>
    <edge id=":antrim_6" function="internal">
        <lane id=":antrim_6_0" index="0" speed="9.24" length="32.36" shape="2289.66,3465.58 2286.47,3472.23 2280.04,3472.87 2272.41,3468.89 2265.63,3461.65"/>
    </edge>
    <edge id=":antrim_7" function="internal">
        <lane id=":antrim_7_0" index="0" speed="4.18" length="6.71" shape="2289.66,3465.58 2288.81,3467.04 2287.17,3467.49 2285.59,3466.96 2284.91,3465.45"/>
    </edge>
    <edge id=":antrim_8" function="internal">
        <lane id=":antrim_8_0" index="0" speed="10.00" length="30.01" shape="2288.11,3465.54 2287.36,3476.48 2285.65,3484.70 2282.98,3490.18 2279.35,3492.93"/>
    </edge>
    <edge id=":antrim_9" function="internal">
        <lane id=":antrim_9_0" index="0" speed="9.27" length="30.89" shape="2288.11,3465.54 2284.64,3470.20 2276.73,3471.31 2267.69,3469.56 2260.83,3465.65"/>
    </edge>
    <edge id=":antrim_10" function="internal">
        <lane id=":antrim_10_0" index="0" speed="8.24" length="26.15" shape="2288.11,3465.54 2285.12,3469.03 2278.40,3468.81 2270.91,3465.98 2265.63,3461.65"/>
    </edge>
    <edge id=":antrim_11" function="internal">
        <lane id=":antrim_11_0" index="0" speed="3.65" length="4.67" shape="2288.11,3465.54 2287.27,3466.72 2286.46,3467.10 2285.67,3466.67 2284.91,3465.45"/>
    </edge>
    <edge id=":antrim_12" function="internal">
        <lane id=":antrim_12_0" index="0" speed="7.15" length="21.68" shape="2277.12,3455.28 2280.42,3464.89 2282.81,3469.78 2284.31,3469.97 2284.91,3465.45"/>
    </edge>
    <edge id=":antrim_13" function="internal">
        <lane id=":antrim_13_0" index="0" speed="10.00" length="39.58" shape="2277.12,3455.28 2281.34,3470.66 2283.12,3482.06 2282.45,3489.48 2279.35,3492.93"/>
    </edge>
    <edge id=":antrim_14" function="internal">
        <lane id=":antrim_14_0" index="0" speed="8.04" length="26.39" shape="2277.12,3455.28 2276.99,3462.30 2273.00,3467.17 2267.00,3468.70 2260.83,3465.65"/>
    </edge>
    <edge id=":antrim_15" function="internal">
        <lane id=":antrim_15_0" index="0" speed="6.72" length="19.19" shape="2277.12,3455.28 2276.64,3461.18 2274.56,3464.21 2270.89,3464.36 2265.63,3461.65"/>
    </edge>
    <edge id=":antrim_16" function="internal">
        <lane id=":antrim_16_0" index="0" speed="6.68" length="19.50" shape="2262.44,3464.08 2267.81,3468.91 2270.13,3470.12 2269.41,3467.69 2265.63,3461.65"/>
    </edge>
    <edge id=":antrim_17" function="internal">
        <lane id=":antrim_17_0" index="0" speed="9.56" length="32.47" shape="2262.44,3464.08 2272.11,3472.13 2279.08,3475.04 2283.34,3472.81 2284.91,3465.45"/>
    </edge>
    <edge id=":antrim_18" function="internal">
        <lane id=":antrim_18_0" index="0" speed="10.00" length="36.70" shape="2262.44,3464.08 2271.86,3473.65 2278.93,3482.32 2281.98,3489.09 2279.35,3492.93"/>
    </edge>
    <edge id=":antrim_19" function="internal">
        <lane id=":antrim_19_0" index="0" speed="3.27" length="3.27" shape="2262.44,3464.08 2262.62,3465.08 2262.42,3465.67 2261.82,3465.86 2260.83,3465.65"/>
    </edge>
    <edge id=":athlone_0" function="internal">
        <lane id=":athlone_0_0" index="0" speed="10.00" length="48.49" shape="1261.92,2002.73 1258.85,1983.94 1257.26,1969.68 1257.15,1959.95 1258.51,1954.75"/>
    </edge>
    <edge id=":athlone_1" function="internal">
        <lane id=":athlone_1_0" index="0" speed="8.95" length="32.08" shape="1261.92,2002.73 1264.66,1997.03 1272.67,1993.50 1282.09,1992.86 1289.04,1995.81"/>
    </edge>
    <edge id=":athlone_2" function="internal">
        <lane id=":athlone_2_0" index="0" speed="4.58" length="8.42" shape="1261.92,2002.73 1262.72,2001.12 1264.94,2000.03 1267.36,1999.81 1268.76,2000.80"/>
    </edge>
    <edge id=":athlone_3" function="internal">
        <lane id=":athlone_3_0" index="0" speed="3.30" length="3.39" shape="1261.92,2002.73 1265.16,2001.74"/>
    </edge>
    <edge id=":athlone_4" function="internal">
        <lane id=":athlone_4_0" index="0" speed="3.99" length="5.86" shape="1265.66,2001.61 1265.04,1999.51 1264.75,1998.83 1264.79,1999.57 1265.16,2001.74"/>
    </edge>
    <edge id=":athlone_5" function="internal">
        <lane id=":athlone_5_0" index="0" speed="10.00" length="47.89" shape="1265.66,2001.61 1260.94,1983.33 1258.17,1969.44 1257.36,1959.91 1258.51,1954.75"/>
    </edge>
    <edge id=":athlone_6" function="internal">
        <lane id=":athlone_6_0" index="0" speed="8.89" length="32.88" shape="1265.66,2001.61 1266.55,1993.86 1272.67,1990.12 1281.14,1990.68 1289.04,1995.81"/>
    </edge>
    <edge id=":athlone_7" function="internal">
        <lane id=":athlone_7_0" index="0" speed="3.65" length="4.67" shape="1265.66,2001.61 1266.13,2000.24 1266.81,1999.65 1267.68,1999.84 1268.76,2000.80"/>
    </edge>
    <edge id=":athlone_8" function="internal">
        <lane id=":athlone_8_0" index="0" speed="7.08" length="21.83" shape="1276.85,2006.46 1271.65,1998.02 1268.56,1994.27 1267.60,1995.19 1268.76,2000.80"/>
    </edge>
    <edge id=":athlone_9" function="internal">
        <lane id=":athlone_9_0" index="0" speed="8.24" length="29.25" shape="1276.85,2006.46 1270.17,1995.92 1265.99,1991.62 1264.32,1993.56 1265.16,2001.74"/>
    </edge>
    <edge id=":athlone_10" function="internal">
        <lane id=":athlone_10_0" index="0" speed="10.00" length="56.16" shape="1276.85,2006.46 1266.40,1987.22 1259.87,1972.18 1257.23,1961.36 1258.51,1954.75"/>
    </edge>
    <edge id=":athlone_11" function="internal">
        <lane id=":athlone_11_0" index="0" speed="6.44" length="18.09" shape="1279.30,2004.32 1278.63,1999.61 1281.03,1995.72 1285.00,1994.00 1289.04,1995.81"/>
    </edge>
    <edge id=":athlone_12" function="internal">
        <lane id=":athlone_12_0" index="0" speed="9.19" length="37.24" shape="1281.80,2002.14 1272.88,1990.03 1267.74,1985.78 1266.36,1989.36 1268.76,2000.80"/>
    </edge>
    <edge id=":athlone_13" function="internal">
        <lane id=":athlone_13_0" index="0" speed="9.74" length="40.63" shape="1281.80,2002.14 1272.20,1989.41 1266.23,1985.10 1263.88,1989.21 1265.16,2001.74"/>
    </edge>
    <edge id=":athlone_14" function="internal">
        <lane id=":athlone_14_0" index="0" speed="10.00" length="53.65" shape="1281.80,2002.14 1269.94,1983.74 1262.10,1969.71 1258.29,1960.05 1258.51,1954.75"/>
    </edge>
    <edge id=":athlone_15" function="internal">
        <lane id=":athlone_15_0" index="0" speed="5.70" length="14.04" shape="1281.80,2002.14 1281.24,1997.84 1282.26,1995.35 1284.86,1994.68 1289.04,1995.81"/>
    </edge>
    <edge id=":athlone_16" function="internal">
        <lane id=":athlone_16_0" index="0" speed="4.02" length="5.59" shape="1259.70,1955.59 1260.33,1953.61 1260.35,1952.81 1259.74,1953.19 1258.51,1954.75"/>
    </edge>
    <edge id=":athlone_17" function="internal">
        <lane id=":athlone_17_0" index="0" speed="10.00" length="50.20" shape="1259.70,1955.59 1260.83,1960.01 1266.10,1968.18 1275.51,1980.11 1289.04,1995.81"/>
    </edge>
    <edge id=":athlone_18" function="internal">
        <lane id=":athlone_18_0" index="0" speed="10.00" length="46.21" shape="1259.70,1955.59 1260.19,1963.96 1263.08,1978.15 1266.53,1992.36 1268.76,2000.80"/>
    </edge>
    <edge id=":athlone_19" function="internal">
        <lane id=":athlone_19_0" index="0" speed="10.00" length="46.55" shape="1259.70,1955.59 1259.69,1964.09 1261.44,1978.58 1263.68,1993.11 1265.16,2001.74"/>
    </edge>
    <edge id=":athlone_20" function="internal">
        <lane id=":athlone_20_0" index="0" speed="10.00" length="48.47" shape="1262.08,2002.69 1258.94,1983.92 1257.30,1969.67 1257.16,1959.95 1258.51,1954.75"/>
    </edge>
    <edge id=":athlone_21" function="internal">
        <lane id=":athlone_21_0" index="0" speed="8.92" length="31.93" shape="1262.08,2002.69 1264.78,1996.99 1272.74,1993.48 1282.11,1992.85 1289.04,1995.81"/>
    </edge>
    <edge id=":athlone_22" function="internal">
        <lane id=":athlone_22_0" index="0" speed="4.54" length="8.22" shape="1262.08,2002.69 1262.86,2001.12 1265.03,2000.05 1267.39,1999.83 1268.76,2000.80"/>
    </edge>
    <edge id=":athlone_23" function="internal">
        <lane id=":athlone_23_0" index="0" speed="3.66" length="4.70" shape="1262.08,2002.69 1262.49,2001.29 1263.15,2000.67 1264.03,2000.82 1265.16,2001.74"/>
    </edge>
    <edge id=":belfast_0" function="internal">
        <lane id=":belfast_0_0" index="0" speed="10.00" length="70.87" shape="2498.25,3315.82 2497.10,3336.60 2492.28,3353.88 2483.78,3367.66 2471.60,3377.94"/>
    </edge>
    <edge id=":belfast_1" function="internal">
        <lane id=":belfast_1_0" index="0" speed="10.00" length="70.69" shape="2498.25,3315.82 2497.08,3336.58 2492.21,3353.78 2483.63,3367.43 2471.34,3377.51"/>
    </edge>
    <edge id=":belfast_2" function="internal">
        <lane id=":belfast_2_0" index="0" speed="10.00" length="61.99" shape="2498.25,3315.82 2497.41,3336.18 2493.52,3352.00 2486.56,3363.28 2476.55,3370.02"/>
    </edge>
    <edge id=":belfast_3" function="internal">
        <lane id=":belfast_3_0" index="0" speed="10.00" length="45.70" shape="2498.25,3315.82 2496.32,3329.24 2490.42,3338.99 2481.74,3342.68 2471.46,3337.93"/>
    </edge>
    <edge id=":belfast_4" function="internal">
        <lane id=":belfast_4_0" index="0" speed="9.00" length="31.78" shape="2498.25,3315.82 2495.67,3323.26 2489.34,3330.41 2481.97,3334.56 2476.29,3332.95"/>
    </edge>
    <edge id=":belfast_5" function="internal">
        <lane id=":belfast_5_0" index="0" speed="5.90" length="14.82" shape="2498.25,3315.82 2496.79,3319.29 2493.38,3322.49 2489.76,3324.12 2487.69,3322.88"/>
    </edge>
    <edge id=":belfast_6" function="internal">
        <lane id=":belfast_6_0" index="0" speed="10.00" length="63.72" shape="2489.05,3321.68 2492.02,3339.84 2490.10,3355.27 2483.29,3367.97 2471.60,3377.94"/>
    </edge>
    <edge id=":belfast_7" function="internal">
        <lane id=":belfast_7_0" index="0" speed="10.00" length="63.51" shape="2489.05,3321.68 2492.00,3339.82 2490.03,3355.18 2483.15,3367.74 2471.34,3377.51"/>
    </edge>
    <edge id=":belfast_8" function="internal">
        <lane id=":belfast_8_0" index="0" speed="10.00" length="55.04" shape="2489.05,3321.68 2492.35,3339.43 2491.37,3353.41 2486.10,3363.60 2476.55,3370.02"/>
    </edge>
    <edge id=":belfast_9" function="internal">
        <lane id=":belfast_9_0" index="0" speed="9.01" length="32.38" shape="2489.05,3321.68 2489.18,3330.89 2485.27,3337.98 2478.86,3340.98 2471.46,3337.93"/>
    </edge>
    <edge id=":belfast_10" function="internal">
        <lane id=":belfast_10_0" index="0" speed="6.91" length="19.87" shape="2489.05,3321.68 2488.17,3326.39 2484.49,3331.09 2479.91,3333.90 2476.29,3332.95"/>
    </edge>
    <edge id=":belfast_11" function="internal">
        <lane id=":belfast_11_0" index="0" speed="3.09" length="2.66" shape="2489.05,3321.68 2489.16,3322.49 2488.97,3322.96 2488.48,3323.10 2487.69,3322.88"/>
    </edge>
    <edge id=":belfast_12" function="internal">
        <lane id=":belfast_12_0" index="0" speed="3.06" length="2.44" shape="2487.99,3322.61 2487.65,3321.82 2487.48,3321.60 2487.49,3321.96 2487.69,3322.88"/>
    </edge>
    <edge id=":belfast_13" function="internal">
        <lane id=":belfast_13_0" index="0" speed="10.00" length="63.70" shape="2487.99,3322.61 2492.51,3339.71 2491.28,3354.62 2484.31,3367.37 2471.60,3377.94"/>
    </edge>
    <edge id=":belfast_14" function="internal">
        <lane id=":belfast_14_0" index="0" speed="10.00" length="60.29" shape="2485.45,3324.86 2490.03,3341.58 2489.20,3355.93 2482.97,3367.91 2471.34,3377.51"/>
    </edge>
    <edge id=":belfast_15" function="internal">
        <lane id=":belfast_15_0" index="0" speed="10.00" length="47.20" shape="2485.45,3324.86 2486.43,3335.02 2484.81,3349.54 2481.29,3363.01 2476.55,3370.02"/>
    </edge>
    <edge id=":belfast_16" function="internal">
        <lane id=":belfast_16_0" index="0" speed="7.97" length="26.21" shape="2485.45,3324.86 2486.06,3332.07 2482.90,3337.78 2477.53,3340.30 2471.46,3337.93"/>
    </edge>
    <edge id=":belfast_17" function="internal">
        <lane id=":belfast_17_0" index="0" speed="6.45" length="17.86" shape="2485.45,3324.86 2486.20,3330.32 2484.92,3333.49 2481.62,3334.37 2476.29,3332.95"/>
    </edge>
    <edge id=":belfast_18" function="internal">
        <lane id=":belfast_18_0" index="0" speed="2.62" length="1.26" shape="2476.20,3333.03 2476.52,3333.38 2476.64,3333.48 2476.56,3333.34 2476.29,3332.95"/>
    </edge>
    <edge id=":belfast_19" function="internal">
        <lane id=":belfast_19_0" index="0" speed="9.07" length="33.73" shape="2476.20,3333.03 2483.97,3340.34 2488.47,3341.09 2489.71,3335.27 2487.69,3322.88"/>
    </edge>
    <edge id=":belfast_20" function="internal">
        <lane id=":belfast_20_0" index="0" speed="10.00" length="46.88" shape="2476.20,3333.03 2479.04,3342.20 2478.96,3356.24 2476.35,3369.91 2471.60,3377.94"/>
    </edge>
    <edge id=":belfast_21" function="internal">
        <lane id=":belfast_21_0" index="0" speed="10.00" length="46.52" shape="2476.20,3333.03 2479.01,3342.15 2478.86,3356.08 2476.17,3369.60 2471.34,3377.51"/>
    </edge>
    <edge id=":belfast_22" function="internal">
        <lane id=":belfast_22_0" index="0" speed="10.00" length="39.29" shape="2476.20,3333.03 2479.91,3341.16 2481.70,3352.81 2480.83,3363.82 2476.55,3370.02"/>
    </edge>
    <edge id=":belfast_23" function="internal">
        <lane id=":belfast_23_0" index="0" speed="4.51" length="8.06" shape="2476.20,3333.03 2476.33,3334.73 2475.03,3336.69 2473.12,3338.05 2471.46,3337.93"/>
    </edge>
    <edge id=":belfast_24" function="internal">
        <lane id=":belfast_24_0" index="0" speed="6.59" length="19.04" shape="2473.62,3335.57 2478.93,3340.10 2481.14,3341.17 2480.26,3338.79 2476.29,3332.95"/>
    </edge>
    <edge id=":belfast_25" function="internal">
        <lane id=":belfast_25_0" index="0" speed="9.59" length="36.28" shape="2473.62,3335.57 2482.62,3342.19 2487.96,3342.28 2489.65,3335.85 2487.69,3322.88"/>
    </edge>
    <edge id=":belfast_26" function="internal">
        <lane id=":belfast_26_0" index="0" speed="10.00" length="44.41" shape="2473.62,3335.57 2477.14,3344.07 2477.92,3357.27 2476.04,3370.21 2471.60,3377.94"/>
    </edge>
    <edge id=":belfast_27" function="internal">
        <lane id=":belfast_27_0" index="0" speed="10.00" length="44.04" shape="2473.62,3335.57 2477.11,3344.02 2477.82,3357.10 2475.86,3369.90 2471.34,3377.51"/>
    </edge>
    <edge id=":belfast_28" function="internal">
        <lane id=":belfast_28_0" index="0" speed="10.00" length="37.18" shape="2473.62,3335.57 2478.02,3343.03 2480.66,3353.84 2480.52,3364.12 2476.55,3370.02"/>
    </edge>
    <edge id=":belfast_29" function="internal">
        <lane id=":belfast_29_0" index="0" speed="3.65" length="4.67" shape="2473.62,3335.57 2473.97,3336.97 2473.72,3337.83 2472.89,3338.15 2471.46,3337.93"/>
    </edge>
    <edge id=":belfast_30" function="internal">
        <lane id=":belfast_30_0" index="0" speed="6.73" length="19.75" shape="2470.54,3342.57 2476.55,3345.66 2478.71,3345.91 2477.01,3343.34 2471.46,3337.93"/>
    </edge>
    <edge id=":belfast_31" function="internal">
        <lane id=":belfast_31_0" index="0" speed="8.25" length="28.39" shape="2470.54,3342.57 2479.07,3346.61 2482.87,3346.35 2481.94,3341.80 2476.29,3332.95"/>
    </edge>
    <edge id=":belfast_32" function="internal">
        <lane id=":belfast_32_0" index="0" speed="10.00" length="40.19" shape="2470.54,3342.57 2481.01,3346.68 2487.36,3344.77 2489.59,3336.83 2487.69,3322.88"/>
    </edge>
    <edge id=":belfast_33" function="internal">
        <lane id=":belfast_33_0" index="0" speed="10.00" length="38.07" shape="2470.54,3342.57 2475.04,3349.30 2476.82,3360.17 2475.73,3371.08 2471.60,3377.94"/>
    </edge>
    <edge id=":belfast_34" function="internal">
        <lane id=":belfast_34_0" index="0" speed="10.00" length="37.69" shape="2470.54,3342.57 2475.01,3349.25 2476.72,3360.00 2475.54,3370.77 2471.34,3377.51"/>
    </edge>
    <edge id=":belfast_35" function="internal">
        <lane id=":belfast_35_0" index="0" speed="9.56" length="31.54" shape="2470.54,3342.57 2475.91,3348.26 2479.56,3356.74 2480.20,3364.99 2476.55,3370.02"/>
    </edge>
    <edge id=":belfast_36" function="internal">
        <lane id=":belfast_36_0" index="0" speed="7.85" length="24.83" shape="2483.38,3354.71 2485.97,3354.49 2484.84,3351.62 2480.01,3346.10 2471.46,3337.93"/>
    </edge>
    <edge id=":belfast_37" function="internal">
        <lane id=":belfast_37_0" index="0" speed="8.66" length="28.02" shape="2483.38,3354.71 2486.96,3354.35 2486.97,3350.61 2483.42,3343.47 2476.29,3332.95"/>
    </edge>
    <edge id=":belfast_38" function="internal">
        <lane id=":belfast_38_0" index="0" speed="10.00" length="36.75" shape="2483.38,3354.71 2488.33,3353.89 2490.69,3348.31 2490.48,3337.97 2487.69,3322.88"/>
    </edge>
    <edge id=":belfast_39" function="internal">
        <lane id=":belfast_39_0" index="0" speed="9.69" length="34.02" shape="2483.38,3354.71 2489.20,3358.76 2487.39,3364.81 2480.63,3371.63 2471.60,3377.94"/>
    </edge>
    <edge id=":belfast_40" function="internal">
        <lane id=":belfast_40_0" index="0" speed="8.97" length="29.14" shape="2483.38,3354.71 2486.06,3358.54 2483.27,3365.26 2477.53,3372.41 2471.34,3377.51"/>
    </edge>
    <edge id=":belfast_41" function="internal">
        <lane id=":belfast_41_0" index="0" speed="7.14" length="19.20" shape="2483.38,3354.71 2485.34,3357.39 2483.96,3362.11 2480.58,3366.97 2476.55,3370.02"/>
    </edge>
    <edge id=":bray_0" function="internal">
        <lane id=":bray_0_0" index="0" speed="10.00" length="52.27" shape="2430.37,1643.26 2434.69,1651.68 2440.74,1667.15 2446.15,1682.89 2448.55,1692.14"/>
    </edge>
    <edge id=":bray_1" function="internal">
        <lane id=":bray_1_0" index="0" speed="10.00" length="52.54" shape="2430.37,1643.26 2437.76,1652.73 2442.64,1664.02 2445.02,1677.12 2444.89,1692.04"/>
    </edge>
    <edge id=":bray_2" function="internal">
        <lane id=":bray_2_0" index="0" speed="10.00" length="48.02" shape="2430.37,1643.26 2436.88,1652.56 2438.62,1662.86 2435.61,1674.15 2427.83,1686.43"/>
    </edge>
    <edge id=":bray_3" function="internal">
        <lane id=":bray_3_0" index="0" speed="10.00" length="42.79" shape="2430.37,1643.26 2436.39,1652.77 2435.21,1661.23 2428.21,1668.51 2416.80,1674.51"/>
    </edge>
    <edge id=":bray_4" function="internal">
        <lane id=":bray_4_0" index="0" speed="6.63" length="17.78" shape="2430.37,1643.26 2432.20,1647.34 2430.75,1651.20 2427.09,1653.61 2422.29,1653.36"/>
    </edge>
    <edge id=":bray_5" function="internal">
        <lane id=":bray_5_0" index="0" speed="6.07" length="14.69" shape="2430.37,1643.26 2430.92,1646.25 2428.94,1649.81 2425.67,1652.53 2422.37,1652.95"/>
    </edge>
    <edge id=":bray_6" function="internal">
        <lane id=":bray_6_0" index="0" speed="10.00" length="55.85" shape="2424.01,1645.11 2434.34,1652.27 2441.87,1662.50 2446.61,1675.79 2448.55,1692.14"/>
    </edge>
    <edge id=":bray_7" function="internal">
        <lane id=":bray_7_0" index="0" speed="10.00" length="54.85" shape="2424.01,1645.11 2434.30,1652.36 2441.22,1662.60 2444.75,1675.83 2444.89,1692.04"/>
    </edge>
    <edge id=":bray_8" function="internal">
        <lane id=":bray_8_0" index="0" speed="10.00" length="46.93" shape="2423.33,1648.34 2434.01,1655.84 2437.76,1664.59 2435.42,1674.74 2427.83,1686.43"/>
    </edge>
    <edge id=":bray_9" function="internal">
        <lane id=":bray_9_0" index="0" speed="9.97" length="35.39" shape="2423.33,1648.34 2429.97,1654.38 2430.34,1661.75 2425.58,1668.97 2416.80,1674.51"/>
    </edge>
    <edge id=":bray_10" function="internal">
        <lane id=":bray_10_0" index="0" speed="4.03" length="6.06" shape="2423.33,1648.34 2424.04,1649.52 2423.99,1651.36 2423.34,1652.94 2422.29,1653.36"/>
    </edge>
    <edge id=":bray_11" function="internal">
        <lane id=":bray_11_0" index="0" speed="4.22" length="6.89" shape="2423.33,1648.34 2424.82,1649.85 2425.16,1651.13 2424.34,1652.16 2422.37,1652.95"/>
    </edge>
    <edge id=":bray_12" function="internal">
        <lane id=":bray_12_0" index="0" speed="5.66" length="13.13" shape="2421.61,1656.61 2426.35,1656.94 2428.05,1656.51 2426.69,1655.32 2422.29,1653.36"/>
    </edge>
    <edge id=":bray_13" function="internal">
        <lane id=":bray_13_0" index="0" speed="5.82" length="13.96" shape="2421.61,1656.61 2426.63,1656.95 2428.43,1656.45 2427.01,1655.12 2422.37,1652.95"/>
    </edge>
    <edge id=":bray_14" function="internal">
        <lane id=":bray_14_0" index="0" speed="10.00" length="49.26" shape="2421.61,1656.61 2433.02,1659.94 2441.32,1666.97 2446.50,1677.71 2448.55,1692.14"/>
    </edge>
    <edge id=":bray_15" function="internal">
        <lane id=":bray_15_0" index="0" speed="10.00" length="47.91" shape="2421.61,1656.61 2432.86,1659.94 2440.49,1666.96 2444.50,1677.65 2444.89,1692.04"/>
    </edge>
    <edge id=":bray_16" function="internal">
        <lane id=":bray_16_0" index="0" speed="10.00" length="39.06" shape="2421.61,1656.61 2431.16,1660.22 2434.97,1667.27 2433.66,1676.45 2427.83,1686.43"/>
    </edge>
    <edge id=":bray_17" function="internal">
        <lane id=":bray_17_0" index="0" speed="7.90" length="25.10" shape="2421.61,1656.61 2426.52,1659.36 2426.62,1664.55 2423.02,1670.25 2416.80,1674.51"/>
    </edge>
    <edge id=":bray_18" function="internal">
        <lane id=":bray_18_0" index="0" speed="7.57" length="23.68" shape="2412.89,1660.74 2423.03,1659.89 2427.98,1658.38 2427.73,1656.20 2422.29,1653.36"/>
    </edge>
    <edge id=":bray_19" function="internal">
        <lane id=":bray_19_0" index="0" speed="7.66" length="24.15" shape="2412.89,1660.74 2423.15,1659.86 2428.15,1658.27 2427.89,1655.97 2422.37,1652.95"/>
    </edge>
    <edge id=":bray_20" function="internal">
        <lane id=":bray_20_0" index="0" speed="10.00" length="54.29" shape="2412.89,1660.74 2428.12,1662.18 2439.14,1667.89 2445.95,1677.88 2448.55,1692.14"/>
    </edge>
    <edge id=":bray_21" function="internal">
        <lane id=":bray_21_0" index="0" speed="10.00" length="46.43" shape="2412.89,1660.74 2421.75,1664.23 2432.51,1672.93 2441.47,1683.36 2444.89,1692.04"/>
    </edge>
    <edge id=":bray_22" function="internal">
        <lane id=":bray_22_0" index="0" speed="10.00" length="38.90" shape="2412.89,1660.74 2423.63,1662.66 2430.40,1668.49 2432.15,1676.87 2427.83,1686.43"/>
    </edge>
    <edge id=":bray_23" function="internal">
        <lane id=":bray_23_0" index="0" speed="7.05" length="20.90" shape="2412.89,1660.74 2419.03,1662.72 2421.73,1665.67 2420.98,1669.60 2416.80,1674.51"/>
    </edge>
    <edge id=":bray_24" function="internal">
        <lane id=":bray_24_0" index="0" speed="6.52" length="18.37" shape="2418.85,1677.97 2424.21,1673.93 2425.65,1672.01 2423.18,1672.20 2416.80,1674.51"/>
    </edge>
    <edge id=":bray_25" function="internal">
        <lane id=":bray_25_0" index="0" speed="10.00" length="34.22" shape="2418.85,1677.97 2427.99,1670.22 2431.60,1663.53 2429.70,1657.91 2422.29,1653.36"/>
    </edge>
    <edge id=":bray_26" function="internal">
        <lane id=":bray_26_0" index="0" speed="10.00" length="34.52" shape="2418.85,1677.97 2428.01,1670.18 2431.65,1663.41 2429.77,1657.67 2422.37,1652.95"/>
    </edge>
    <edge id=":bray_27" function="internal">
        <lane id=":bray_27_0" index="0" speed="10.00" length="42.34" shape="2418.85,1677.97 2429.74,1673.21 2439.12,1674.28 2445.79,1680.75 2448.55,1692.14"/>
    </edge>
    <edge id=":bray_28" function="internal">
        <lane id=":bray_28_0" index="0" speed="10.00" length="38.66" shape="2418.85,1677.97 2428.81,1673.90 2437.47,1675.34 2443.32,1681.61 2444.89,1692.04"/>
    </edge>
    <edge id=":bray_29" function="internal">
        <lane id=":bray_29_0" index="0" speed="6.53" length="18.02" shape="2418.85,1677.97 2424.27,1676.72 2427.57,1677.72 2428.76,1680.95 2427.83,1686.43"/>
    </edge>
    <edge id=":carlow_0" function="internal">
        <lane id=":carlow_0_0" index="0" speed="2.99" length="2.27" shape="1892.17,1167.02 1892.52,1167.79 1892.68,1168.03 1892.66,1167.74 1892.45,1166.92"/>
    </edge>
    <edge id=":carlow_1" function="internal">
        <lane id=":carlow_1_0" index="0" speed="10.00" length="26.88" shape="1892.17,1167.02 1889.94,1161.85 1886.67,1154.69 1883.13,1147.71 1880.08,1143.07"/>
    </edge>
    <edge id=":carlow_2" function="internal">
        <lane id=":carlow_2_0" index="0" speed="10.00" length="26.88" shape="1892.17,1167.02 1889.94,1161.85 1886.68,1154.69 1883.14,1147.71 1880.08,1143.07"/>
    </edge>
    <edge id=":carlow_3" function="internal">
        <lane id=":carlow_3_0" index="0" speed="5.54" length="12.28" shape="1895.65,1165.29 1893.07,1161.73 1891.68,1160.82 1891.47,1162.55 1892.45,1166.92"/>
    </edge>
    <edge id=":carlow_4" function="internal">
        <lane id=":carlow_4_0" index="0" speed="10.00" length="27.14" shape="1895.65,1165.29 1892.55,1160.56 1888.12,1153.98 1883.57,1147.50 1880.08,1143.07"/>
    </edge>
    <edge id=":carlow_5" function="internal">
        <lane id=":carlow_5_0" index="0" speed="10.00" length="27.14" shape="1895.65,1165.29 1892.55,1160.56 1888.12,1153.98 1883.57,1147.50 1880.08,1143.07"/>
    </edge>
    <edge id=":carlow_6" function="internal">
        <lane id=":carlow_6_0" index="0" speed="10.00" length="26.95" shape="1890.11,1140.49 1888.98,1144.30 1889.00,1149.97 1890.16,1157.51 1892.45,1166.92"/>
    </edge>
    <edge id=":carlow_7" function="internal">
        <lane id=":carlow_7_0" index="0" speed="6.62" length="11.43" shape="1890.11,1140.49 1888.13,1142.51 1885.32,1143.84 1882.39,1144.15 1880.08,1143.07"/>
    </edge>
    <edge id=":carlow_8" function="internal">
        <lane id=":carlow_8_0" index="0" speed="6.62" length="11.43" shape="1890.11,1140.49 1888.13,1142.50 1885.32,1143.84 1882.39,1144.15 1880.08,1143.07"/>
    </edge>
    <edge id=":carlow_9" function="internal">
        <lane id=":carlow_9_0" index="0" speed="10.00" length="27.99" shape="1882.42,1140.89 1885.24,1145.82 1888.22,1153.47 1890.80,1161.33 1892.45,1166.92"/>
    </edge>
    <edge id=":carlow_10" function="internal">
        <lane id=":carlow_10_0" index="0" speed="3.24" length="3.20" shape="1882.42,1140.89 1880.08,1143.07"/>
    </edge>
    <edge id=":carlow_11" function="internal">
        <lane id=":carlow_11_0" index="0" speed="3.65" length="4.67" shape="1882.42,1140.89 1882.65,1142.31 1882.34,1143.15 1881.49,1143.40 1880.08,1143.07"/>
    </edge>
    <edge id=":carlow_12" function="internal">
        <lane id=":carlow_12_0" index="0" speed="10.00" length="27.99" shape="1882.42,1140.89 1885.24,1145.82 1888.21,1153.47 1890.80,1161.33 1892.45,1166.92"/>
    </edge>
    <edge id=":carlow_13" function="internal">
        <lane id=":carlow_13_0" index="0" speed="3.24" length="3.20" shape="1882.42,1140.89 1880.08,1143.07"/>
    </edge>
    <edge id=":carlow_14" function="internal">
        <lane id=":carlow_14_0" index="0" speed="3.65" length="4.67" shape="1882.42,1140.89 1882.65,1142.31 1882.34,1143.15 1881.48,1143.41 1880.08,1143.07"/>
    </edge>
    <edge id=":carlow_15" function="internal">
        <lane id=":carlow_15_0" index="0" speed="9.16" length="8.85" shape="1882.74,1151.22 1882.79,1148.96 1882.36,1146.85 1881.46,1144.89 1880.08,1143.07"/>
    </edge>
    <edge id=":carlow_16" function="internal">
        <lane id=":carlow_16_0" index="0" speed="9.16" length="8.85" shape="1882.74,1151.22 1882.79,1148.96 1882.37,1146.85 1881.46,1144.88 1880.08,1143.07"/>
    </edge>
    <edge id=":carlow_17" function="internal">
        <lane id=":carlow_17_0" index="0" speed="7.64" length="24.37" shape="1882.74,1151.22 1884.41,1147.99 1887.04,1151.55 1889.96,1158.87 1892.45,1166.92"/>
    </edge>