<?xml version="1.0" encoding="UTF-8"?>

<!-- generated on 2025-02-19 12:55:53 by Eclipse SUMO netconvert Version 1.18.0
<configuration xmlns:xsi="http://www.w3.org/2001/XMLSchema-instance" xsi:noNamespaceSchemaLocation="http://sumo.dlr.de/xsd/netconvertConfiguration.xsd">

    <input>
        <node-files value="nod.xml"/>
        <edge-files value="edge_xmls/08921.xml"/>
    </input>

    <output>
        <output-file value="networks/08921.net.xml"/>
    </output>

</configuration>
-->

<net version="1.16" junctionCornerDetail="5" limitTurnSpeed="5.50" xmlns:xsi="http://www.w3.org/2001/XMLSchema-instance" xsi:noNamespaceSchemaLocation="http://sumo.dlr.de/xsd/net_file.xsd">

    <location netOffset="-682.00,4368.00" convBoundary="0.00,0.00,2498.00,3881.00" origBoundary="682.00,-4368.00,3180.00,-487.00" projParameter="!"/>

    <edge id=":antrim_0" function="internal">
        <lane id=":antrim_0_0" index="0" speed="9.08" length="39.94" shape="2288.75,3435.44 2288.52,3439.79 2287.91,3447.88 2286.94,3459.70 2285.60,3475.26"/>
    </edge>
    <edge id=":antrim_1" function="internal">
        <lane id=":antrim_1_0" index="0" speed="10.00" length="69.96" shape="2288.75,3435.44 2287.11,3459.94 2283.35,3478.94 2277.47,3492.44 2269.48,3500.45"/>
    </edge>
    <edge id=":antrim_2" function="internal">
        <lane id=":antrim_2_0" index="0" speed="10.00" length="67.88" shape="2288.75,3435.44 2287.00,3459.79 2282.93,3478.14 2276.54,3490.48 2267.83,3496.82"/>
    </edge>
    <edge id=":antrim_3" function="internal">
        <lane id=":antrim_3_0" index="0" speed="10.00" length="58.36" shape="2288.75,3435.44 2287.57,3455.69 2284.36,3472.22 2278.29,3481.96 2268.53,3481.82"/>
    </edge>
    <edge id=":antrim_4" function="internal">
        <lane id=":antrim_4_0" index="0" speed="10.00" length="53.00" shape="2288.75,3435.44 2287.78,3453.82 2285.23,3469.95 2280.51,3478.78 2273.05,3475.25"/>
    </edge>
    <edge id=":antrim_5" function="internal">
        <lane id=":antrim_5_0" index="0" speed="10.00" length="52.99" shape="2288.75,3435.44 2287.78,3453.82 2285.23,3469.95 2280.52,3478.77 2273.07,3475.23"/>
    </edge>
    <edge id=":antrim_6" function="internal">
        <lane id=":antrim_6_0" index="0" speed="8.77" length="32.72" shape="2288.75,3435.44 2285.89,3444.21 2279.51,3449.69 2272.27,3450.37 2266.83,3444.78"/>
    </edge>
    <edge id=":antrim_7" function="internal">
        <lane id=":antrim_7_0" index="0" speed="8.04" length="27.98" shape="2288.75,3435.44 2286.15,3442.78 2280.41,3447.15 2274.09,3447.41 2269.73,3442.38"/>
    </edge>
    <edge id=":antrim_8" function="internal">
        <lane id=":antrim_8_0" index="0" speed="7.29" length="23.29" shape="2288.75,3435.44 2286.52,3441.59 2281.65,3445.35 2276.42,3445.66 2273.09,3441.46"/>
    </edge>
    <edge id=":antrim_9" function="internal">
        <lane id=":antrim_9_0" index="0" speed="6.45" length="18.31" shape="2288.75,3435.44 2286.34,3440.55 2283.46,3442.56 2280.13,3441.46 2276.35,3437.27"/>
    </edge>
    <edge id=":antrim_10" function="internal">
        <lane id=":antrim_10_0" index="0" speed="5.67" length="12.39" shape="2269.99,3478.97 2273.99,3480.70 2275.83,3480.65 2275.51,3478.84 2273.05,3475.25"/>
    </edge>
    <edge id=":antrim_11" function="internal">
        <lane id=":antrim_11_0" index="0" speed="5.68" length="12.43" shape="2269.99,3478.97 2274.00,3480.70 2275.85,3480.65 2275.54,3478.83 2273.07,3475.23"/>
    </edge>
    <edge id=":antrim_12" function="internal">
        <lane id=":antrim_12_0" index="0" speed="10.00" length="40.70" shape="2269.99,3478.97 2274.65,3479.33 2275.68,3473.76 2273.07,3462.24 2266.83,3444.78"/>
    </edge>
    <edge id=":antrim_13" function="internal">
        <lane id=":antrim_13_0" index="0" speed="10.00" length="42.90" shape="2269.99,3478.97 2274.98,3479.26 2276.60,3473.25 2274.85,3460.96 2269.73,3442.38"/>
    </edge>
    <edge id=":antrim_14" function="internal">
        <lane id=":antrim_14_0" index="0" speed="10.00" length="43.92" shape="2269.99,3478.97 2275.30,3479.26 2277.59,3473.10 2276.85,3460.50 2273.09,3441.46"/>
    </edge>
    <edge id=":antrim_15" function="internal">
        <lane id=":antrim_15_0" index="0" speed="10.00" length="48.16" shape="2269.99,3478.97 2275.62,3479.06 2278.55,3472.13 2278.80,3458.20 2276.35,3437.27"/>
    </edge>
    <edge id=":antrim_16" function="internal">
        <lane id=":antrim_16_0" index="0" speed="8.33" length="20.06" shape="2269.99,3478.97 2276.45,3481.56 2281.20,3481.80 2284.25,3479.70 2285.60,3475.26"/>
    </edge>
    <edge id=":antrim_17" function="internal">
        <lane id=":antrim_17_0" index="0" speed="9.23" length="27.60" shape="2269.99,3478.97 2275.84,3483.79 2277.58,3489.51 2275.40,3495.33 2269.48,3500.45"/>
    </edge>
    <edge id=":antrim_18" function="internal">
        <lane id=":antrim_18_0" index="0" speed="8.19" length="23.69" shape="2269.99,3478.97 2274.73,3483.24 2275.79,3488.41 2273.41,3493.32 2267.83,3496.82"/>
    </edge>
    <edge id=":antrim_19" function="internal">
        <lane id=":antrim_19_0" index="0" speed="3.65" length="4.67" shape="2269.99,3478.97 2270.69,3480.23 2270.68,3481.13 2269.96,3481.66 2268.53,3481.82"/>
    </edge>
    <edge id=":athlone_0" function="internal">
        <lane id=":athlone_0_0" index="0" speed="5.70" length="12.58" shape="1255.34,1980.31 1254.83,1975.91 1253.88,1974.31 1252.48,1975.53 1250.63,1979.56"/>
    </edge>
    <edge id=":athlone_1" function="internal">
        <lane id=":athlone_1_0" index="0" speed="10.00" length="38.62" shape="1255.34,1980.31 1253.06,1973.31 1248.01,1962.53 1242.33,1952.03 1238.17,1945.89"/>
    </edge>
    <edge id=":athlone_2" function="internal">
        <lane id=":athlone_2_0" index="0" speed="10.00" length="41.01" shape="1255.34,1980.31 1253.78,1972.68 1250.43,1960.43 1246.69,1948.27 1244.00,1940.94"/>
    </edge>
    <edge id=":athlone_3" function="internal">
        <lane id=":athlone_3_0" index="0" speed="10.00" length="39.67" shape="1255.34,1980.31 1256.26,1973.47 1258.97,1962.68 1262.81,1951.30 1267.15,1942.69"/>
    </edge>
    <edge id=":athlone_4" function="internal">
        <lane id=":athlone_4_0" index="0" speed="10.00" length="36.05" shape="1255.34,1980.31 1255.89,1970.82 1258.52,1962.46 1263.24,1955.22 1270.04,1949.12"/>
    </edge>
    <edge id=":athlone_5" function="internal">
        <lane id=":athlone_5_0" index="0" speed="10.00" length="34.55" shape="1255.34,1980.31 1256.00,1970.95 1258.99,1963.23 1264.30,1957.16 1271.93,1952.73"/>
    </edge>
    <edge id=":athlone_6" function="internal">
        <lane id=":athlone_6_0" index="0" speed="8.38" length="23.38" shape="1255.34,1980.31 1255.79,1973.14 1257.88,1967.55 1261.63,1964.90 1267.03,1966.53"/>
    </edge>
    <edge id=":athlone_7" function="internal">
        <lane id=":athlone_7_0" index="0" speed="6.88" length="17.20" shape="1255.34,1980.31 1256.30,1975.88 1258.89,1971.30 1262.15,1968.36 1265.11,1968.86"/>
    </edge>
    <edge id=":athlone_8" function="internal">
        <lane id=":athlone_8_0" index="0" speed="6.56" length="16.05" shape="1255.34,1980.31 1256.27,1976.15 1258.76,1971.83 1261.82,1969.09 1264.45,1969.66"/>
    </edge>
    <edge id=":athlone_9" function="internal">
        <lane id=":athlone_9_0" index="0" speed="10.00" length="0.83" shape="1264.99,1969.01 1265.24,1969.17 1265.35,1969.20 1265.31,1969.09 1265.11,1968.86"/>
    </edge>
    <edge id=":athlone_10" function="internal">
        <lane id=":athlone_10_0" index="0" speed="4.60" length="7.74" shape="1264.99,1969.01 1267.33,1970.41 1268.38,1970.57 1268.11,1969.47 1266.55,1967.12"/>
    </edge>
    <edge id=":athlone_11" function="internal">
        <lane id=":athlone_11_0" index="0" speed="8.89" length="20.87" shape="1264.99,1969.01 1261.01,1967.59 1257.29,1968.87 1253.83,1972.86 1250.63,1979.56"/>
    </edge>
    <edge id=":athlone_12" function="internal">
        <lane id=":athlone_12_0" index="0" speed="10.00" length="35.42" shape="1264.99,1969.01 1259.55,1964.71 1251.37,1957.71 1243.29,1950.58 1238.17,1945.89"/>
    </edge>
    <edge id=":athlone_13" function="internal">
        <lane id=":athlone_13_0" index="0" speed="10.00" length="35.13" shape="1264.99,1969.01 1260.28,1964.07 1253.79,1955.60 1247.65,1946.82 1244.00,1940.94"/>
    </edge>
    <edge id=":athlone_14" function="internal">
        <lane id=":athlone_14_0" index="0" speed="10.00" length="28.05" shape="1264.99,1969.01 1262.23,1964.30 1262.04,1957.11 1263.86,1949.29 1267.15,1942.69"/>
    </edge>
    <edge id=":athlone_15" function="internal">
        <lane id=":athlone_15_0" index="0" speed="8.91" length="22.77" shape="1264.99,1969.01 1262.60,1964.84 1263.29,1959.11 1266.10,1953.35 1270.04,1949.12"/>
    </edge>
    <edge id=":athlone_16" function="internal">
        <lane id=":athlone_16_0" index="0" speed="7.89" length="19.94" shape="1264.99,1969.01 1263.24,1965.39 1264.58,1960.47 1267.85,1955.75 1271.93,1952.73"/>
    </edge>
    <edge id=":athlone_17" function="internal">
        <lane id=":athlone_17_0" index="0" speed="3.66" length="4.69" shape="1264.99,1969.01 1264.57,1967.62 1264.77,1966.75 1265.59,1966.38 1267.03,1966.53"/>
    </edge>
    <edge id=":athlone_18" function="internal">
        <lane id=":athlone_18_0" index="0" speed="6.37" length="14.13" shape="1274.52,1960.11 1268.74,1961.23 1265.57,1962.67 1265.00,1964.44 1267.03,1966.53"/>
    </edge>
    <edge id=":athlone_19" function="internal">
        <lane id=":athlone_19_0" index="0" speed="7.27" length="16.75" shape="1274.52,1960.11 1268.18,1961.44 1264.50,1963.33 1263.48,1965.81 1265.11,1968.86"/>
    </edge>
    <edge id=":athlone_20" function="internal">
        <lane id=":athlone_20_0" index="0" speed="6.69" length="13.33" shape="1274.52,1960.11 1269.52,1961.16 1266.53,1962.67 1265.54,1964.66 1266.55,1967.12"/>
    </edge>
    <edge id=":athlone_21" function="internal">
        <lane id=":athlone_21_0" index="0" speed="10.00" length="32.43" shape="1274.52,1960.11 1266.51,1962.21 1259.86,1966.15 1254.57,1971.93 1250.63,1979.56"/>
    </edge>
    <edge id=":athlone_22" function="internal">
        <lane id=":athlone_22_0" index="0" speed="10.00" length="40.40" shape="1274.52,1960.11 1265.09,1960.19 1255.89,1957.84 1246.92,1953.08 1238.17,1945.89"/>
    </edge>
    <edge id=":athlone_23" function="internal">
        <lane id=":athlone_23_0" index="0" speed="10.00" length="38.65" shape="1274.52,1960.11 1265.32,1959.90 1257.17,1956.63 1250.06,1950.32 1244.00,1940.94"/>
    </edge>
    <edge id=":athlone_24" function="internal">
        <lane id=":athlone_24_0" index="0" speed="8.41" length="24.88" shape="1274.52,1960.11 1268.11,1959.19 1264.63,1955.13 1264.26,1949.22 1267.15,1942.69"/>
    </edge>
    <edge id=":athlone_25" function="internal">
        <lane id=":athlone_25_0" index="0" speed="6.45" length="16.21" shape="1274.52,1960.11 1270.30,1959.30 1267.81,1956.37 1267.55,1952.57 1270.04,1949.12"/>
    </edge>
    <edge id=":athlone_26" function="internal">
        <lane id=":athlone_26_0" index="0" speed="5.33" length="11.43" shape="1274.52,1960.11 1271.10,1959.24 1269.53,1957.71 1269.80,1955.54 1271.93,1952.73"/>
    </edge>
    <edge id=":athlone_27" function="internal">
        <lane id=":athlone_27_0" index="0" speed="5.52" length="11.17" shape="1259.71,1939.02 1259.66,1942.84 1260.45,1944.41 1262.08,1943.75 1264.55,1940.83"/>
    </edge>
    <edge id=":athlone_28" function="internal">
        <lane id=":athlone_28_0" index="0" speed="7.94" length="21.54" shape="1259.71,1939.02 1259.68,1946.65 1261.40,1950.87 1264.85,1951.70 1270.04,1949.12"/>
    </edge>
    <edge id=":athlone_29" function="internal">
        <lane id=":athlone_29_0" index="0" speed="8.87" length="24.22" shape="1259.71,1939.02 1259.77,1947.18 1261.83,1952.19 1265.88,1954.04 1271.93,1952.73"/>
    </edge>
    <edge id=":athlone_30" function="internal">
        <lane id=":athlone_30_0" index="0" speed="10.00" length="29.72" shape="1259.71,1939.02 1259.41,1948.68 1260.53,1956.49 1263.07,1962.44 1267.03,1966.53"/>
    </edge>
    <edge id=":athlone_31" function="internal">
        <lane id=":athlone_31_0" index="0" speed="10.00" length="31.06" shape="1259.71,1939.02 1259.28,1948.92 1260.03,1957.20 1261.98,1963.84 1265.11,1968.86"/>
    </edge>
    <edge id=":athlone_32" function="internal">
        <lane id=":athlone_32_0" index="0" speed="10.00" length="29.34" shape="1259.71,1939.02 1259.73,1944.38 1260.71,1951.93 1262.89,1960.04 1266.55,1967.12"/>
    </edge>
    <edge id=":athlone_33" function="internal">
        <lane id=":athlone_33_0" index="0" speed="10.00" length="41.57" shape="1259.71,1939.02 1258.34,1946.79 1255.66,1959.40 1252.73,1971.95 1250.63,1979.56"/>
    </edge>
    <edge id=":athlone_34" function="internal">
        <lane id=":athlone_34_0" index="0" speed="9.27" length="29.46" shape="1259.71,1939.02 1257.10,1946.59 1251.87,1950.42 1245.17,1950.27 1238.17,1945.89"/>
    </edge>
    <edge id=":athlone_35" function="internal">
        <lane id=":athlone_35_0" index="0" speed="7.44" length="21.42" shape="1259.71,1939.02 1257.46,1944.11 1253.03,1946.20 1248.02,1945.18 1244.00,1940.94"/>
    </edge>
    <edge id=":athlone_36" function="internal">
        <lane id=":athlone_36_0" index="0" speed="8.79" length="23.69" shape="1246.85,1939.49 1250.86,1945.29 1255.15,1947.44 1259.71,1945.95 1264.55,1940.83"/>
    </edge>
    <edge id=":athlone_37" function="internal">
        <lane id=":athlone_37_0" index="0" speed="10.00" length="29.47" shape="1246.85,1939.49 1251.95,1947.27 1257.52,1951.47 1263.55,1952.08 1270.04,1949.12"/>
    </edge>
    <edge id=":athlone_38" function="internal">
        <lane id=":athlone_38_0" index="0" speed="10.00" length="31.63" shape="1246.85,1939.49 1252.13,1947.62 1258.07,1952.53 1264.67,1954.24 1271.93,1952.73"/>
    </edge>
    <edge id=":athlone_39" function="internal">
        <lane id=":athlone_39_0" index="0" speed="10.00" length="33.82" shape="1246.85,1939.49 1250.38,1945.20 1256.24,1953.63 1262.45,1961.75 1267.03,1966.53"/>
    </edge>
    <edge id=":athlone_40" function="internal">
        <lane id=":athlone_40_0" index="0" speed="10.00" length="34.60" shape="1246.85,1939.49 1250.19,1945.44 1255.59,1954.44 1261.18,1963.32 1265.11,1968.86"/>
    </edge>
    <edge id=":athlone_41" function="internal">
        <lane id=":athlone_41_0" index="0" speed="10.00" length="34.95" shape="1246.85,1939.49 1249.72,1944.96 1254.26,1953.24 1259.50,1962.19 1264.45,1969.66"/>
    </edge>
    <edge id=":athlone_42" function="internal">
        <lane id=":athlone_42_0" index="0" speed="10.00" length="41.43" shape="1246.85,1939.49 1251.17,1950.03 1253.24,1960.22 1253.06,1970.06 1250.63,1979.56"/>
    </edge>
    <edge id=":athlone_43" function="internal">
        <lane id=":athlone_43_0" index="0" speed="6.05" length="14.92" shape="1246.85,1939.49 1247.24,1943.33 1245.14,1946.26 1241.72,1947.40 1238.17,1945.89"/>
    </edge>
    <edge id=":athlone_44" function="internal">
        <lane id=":athlone_44_0" index="0" speed="3.65" length="4.67" shape="1246.85,1939.49 1246.68,1940.93 1246.15,1941.64 1245.25,1941.65 1244.00,1940.94"/>
    </edge>
    <edge id=":athlone_45" function="internal">
        <lane id=":athlone_45_0" index="0" speed="5.95" length="14.39" shape="1240.40,1943.59 1244.30,1947.00 1246.20,1947.69 1246.10,1945.68 1244.00,1940.94"/>
    </edge>
    <edge id=":athlone_46" function="internal">
        <lane id=":athlone_46_0" index="0" speed="10.00" length="28.77" shape="1240.40,1943.59 1246.81,1948.19 1252.97,1949.26 1258.88,1946.80 1264.55,1940.83"/>
    </edge>
    <edge id=":athlone_47" function="internal">
        <lane id=":athlone_47_0" index="0" speed="10.00" length="33.05" shape="1240.40,1943.59 1248.17,1949.69 1255.69,1952.64 1262.98,1952.45 1270.04,1949.12"/>
    </edge>
    <edge id=":athlone_48" function="internal">
        <lane id=":athlone_48_0" index="0" speed="10.00" length="34.84" shape="1240.40,1943.59 1248.36,1949.99 1256.26,1953.64 1264.12,1954.55 1271.93,1952.73"/>
    </edge>
    <edge id=":athlone_49" function="internal">
        <lane id=":athlone_49_0" index="0" speed="10.00" length="35.15" shape="1240.40,1943.59 1245.49,1948.25 1253.51,1955.32 1261.63,1962.25 1267.03,1966.53"/>
    </edge>
    <edge id=":athlone_50" function="internal">
        <lane id=":athlone_50_0" index="0" speed="10.00" length="35.34" shape="1240.40,1943.59 1265.11,1968.86"/>
    </edge>
    <edge id=":athlone_51" function="internal">
        <lane id=":athlone_51_0" index="0" speed="10.00" length="35.49" shape="1240.40,1943.59 1244.83,1948.01 1251.53,1954.93 1258.68,1962.69 1264.45,1969.66"/>
    </edge>
    <edge id=":athlone_52" function="internal">
        <lane id=":athlone_52_0" index="0" speed="10.00" length="39.76" shape="1240.40,1943.59 1247.59,1952.21 1251.69,1961.08 1252.70,1970.20 1250.63,1979.56"/>
    </edge>
    <edge id=":athlone_53" function="internal">
        <lane id=":athlone_53_0" index="0" speed="3.65" length="4.67" shape="1240.40,1943.59 1240.71,1945.00 1240.43,1945.86 1239.59,1946.15 1238.17,1945.89"/>
    </edge>
    <edge id=":belfast_0" function="internal">
        <lane id=":belfast_0_0" index="0" speed="10.00" length="24.20" shape="2498.99,3340.00 2499.00,3349.30 2498.40,3356.30 2497.19,3361.00 2495.36,3363.41"/>
    </edge>
    <edge id=":belfast_1" function="internal">
        <lane id=":belfast_1_0" index="0" speed="10.00" length="35.88" shape="2498.99,3340.00 2495.57,3346.24 2487.13,3351.25 2477.03,3354.23 2468.60,3354.33"/>
    </edge>
    <edge id=":belfast_2" function="internal">
        <lane id=":belfast_2_0" index="0" speed="10.00" length="41.07" shape="2498.99,3340.00 2496.97,3350.55 2490.65,3355.44 2480.90,3355.92 2468.60,3353.26"/>
    </edge>
    <edge id=":belfast_3" function="internal">
        <lane id=":belfast_3_0" index="0" speed="9.21" length="30.27" shape="2498.99,3340.00 2495.86,3344.44 2488.23,3345.10 2479.31,3342.98 2472.31,3339.08"/>
    </edge>
    <edge id=":belfast_4" function="internal">
        <lane id=":belfast_4_0" index="0" speed="9.83" length="34.84" shape="2498.99,3340.00 2496.56,3347.45 2489.97,3348.68 2481.24,3345.27 2472.42,3338.80"/>
    </edge>
    <edge id=":belfast_5" function="internal">
        <lane id=":belfast_5_0" index="0" speed="8.03" length="27.61" shape="2498.99,3340.00 2497.23,3344.31 2492.69,3341.82 2487.28,3335.19 2482.90,3327.08"/>
    </edge>
    <edge id=":belfast_6" function="internal">
        <lane id=":belfast_6_0" index="0" speed="8.88" length="35.73" shape="2498.99,3340.00 2497.48,3344.80 2493.42,3339.66 2488.52,3329.00 2484.50,3317.25"/>
    </edge>
    <edge id=":belfast_7" function="internal">
        <lane id=":belfast_7_0" index="0" speed="8.78" length="36.92" shape="2498.99,3340.00 2488.04,3336.84 2483.12,3331.77 2484.23,3324.79 2491.36,3315.90"/>
    </edge>
    <edge id=":belfast_8" function="internal">
        <lane id=":belfast_8_0" index="0" speed="10.00" length="48.49" shape="2489.19,3315.83 2493.56,3335.66 2496.05,3350.20 2496.65,3359.45 2495.36,3363.41"/>
    </edge>
    <edge id=":belfast_9" function="internal">
        <lane id=":belfast_9_0" index="0" speed="10.00" length="45.83" shape="2489.19,3315.83 2488.05,3325.80 2482.90,3339.13 2475.75,3350.44 2468.60,3354.33"/>
    </edge>
    <edge id=":belfast_10" function="internal">
        <lane id=":belfast_10_0" index="0" speed="10.00" length="44.99" shape="2489.19,3315.83 2488.04,3325.67 2482.87,3338.71 2475.71,3349.66 2468.60,3353.26"/>
    </edge>
    <edge id=":belfast_11" function="internal">
        <lane id=":belfast_11_0" index="0" speed="9.11" length="32.49" shape="2489.19,3315.83 2488.34,3323.95 2484.00,3332.93 2478.02,3339.17 2472.31,3339.08"/>
    </edge>
    <edge id=":belfast_12" function="internal">
        <lane id=":belfast_12_0" index="0" speed="9.06" length="32.24" shape="2489.19,3315.83 2488.35,3323.91 2484.03,3332.81 2478.10,3338.96 2472.42,3338.80"/>
    </edge>
    <edge id=":belfast_13" function="internal">
        <lane id=":belfast_13_0" index="0" speed="6.31" length="17.58" shape="2489.19,3315.83 2489.28,3321.46 2487.67,3326.55 2485.25,3329.10 2482.90,3327.08"/>
    </edge>
    <edge id=":belfast_14" function="internal">
        <lane id=":belfast_14_0" index="0" speed="3.72" length="4.89" shape="2489.19,3315.83 2484.50,3317.25"/>
    </edge>
    <edge id=":belfast_15" function="internal">
        <lane id=":belfast_15_0" index="0" speed="6.35" length="18.05" shape="2489.19,3315.83 2490.89,3322.45 2491.82,3324.67 2491.98,3322.49 2491.36,3315.90"/>
    </edge>
    <edge id=":belfast_16" function="internal">
        <lane id=":belfast_16_0" index="0" speed="10.00" length="48.19" shape="2487.59,3316.40 2492.68,3335.97 2495.67,3350.33 2496.57,3359.47 2495.36,3363.41"/>
    </edge>
    <edge id=":belfast_17" function="internal">
        <lane id=":belfast_17_0" index="0" speed="10.00" length="44.70" shape="2487.59,3316.40 2486.83,3326.24 2482.22,3339.38 2475.54,3350.51 2468.60,3354.33"/>
    </edge>
    <edge id=":belfast_18" function="internal">
        <lane id=":belfast_18_0" index="0" speed="10.00" length="43.84" shape="2487.59,3316.40 2486.82,3326.11 2482.19,3338.96 2475.51,3349.74 2468.60,3353.26"/>
    </edge>
    <edge id=":belfast_19" function="internal">
        <lane id=":belfast_19_0" index="0" speed="8.88" length="31.29" shape="2487.59,3316.40 2487.13,3324.39 2483.32,3333.18 2477.82,3339.25 2472.31,3339.08"/>
    </edge>
    <edge id=":belfast_20" function="internal">
        <lane id=":belfast_20_0" index="0" speed="8.83" length="31.04" shape="2487.59,3316.40 2487.14,3324.35 2483.36,3333.06 2477.89,3339.04 2472.42,3338.80"/>
    </edge>
    <edge id=":belfast_21" function="internal">
        <lane id=":belfast_21_0" index="0" speed="5.55" length="13.30" shape="2487.59,3316.40 2487.50,3320.15 2486.18,3324.49 2484.40,3327.46 2482.90,3327.08"/>
    </edge>
    <edge id=":belfast_22" function="internal">
        <lane id=":belfast_22_0" index="0" speed="7.35" length="24.60" shape="2487.59,3316.40 2490.26,3325.18 2491.79,3328.03 2492.15,3324.94 2491.36,3315.90"/>
    </edge>
    <edge id=":belfast_23" function="internal">
        <lane id=":belfast_23_0" index="0" speed="3.65" length="4.67" shape="2487.59,3316.40 2487.14,3317.77 2486.47,3318.36 2485.59,3318.19 2484.50,3317.25"/>
    </edge>
    <edge id=":belfast_24" function="internal">
        <lane id=":belfast_24_0" index="0" speed="10.00" length="48.04" shape="2485.18,3317.06 2491.35,3336.33 2495.10,3350.48 2496.44,3359.50 2495.36,3363.41"/>
    </edge>
    <edge id=":belfast_25" function="internal">
        <lane id=":belfast_25_0" index="0" speed="10.00" length="43.21" shape="2485.18,3317.06 2485.00,3326.74 2481.19,3339.66 2475.23,3350.60 2468.60,3354.33"/>
    </edge>
    <edge id=":belfast_26" function="internal">
        <lane id=":belfast_26_0" index="0" speed="10.00" length="42.34" shape="2485.18,3317.06 2484.99,3326.61 2481.16,3339.24 2475.20,3349.82 2468.60,3353.26"/>
    </edge>
    <edge id=":belfast_27" function="internal">
        <lane id=":belfast_27_0" index="0" speed="8.53" length="29.38" shape="2485.18,3317.06 2485.21,3324.70 2482.14,3333.22 2477.37,3339.17 2472.31,3339.08"/>
    </edge>
    <edge id=":belfast_28" function="internal">
        <lane id=":belfast_28_0" index="0" speed="8.47" length="29.05" shape="2485.18,3317.06 2485.19,3324.61 2482.14,3333.04 2477.41,3338.92 2472.42,3338.80"/>
    </edge>
    <edge id=":belfast_29" function="internal">
        <lane id=":belfast_29_0" index="0" speed="5.38" length="12.61" shape="2485.18,3317.06 2483.63,3312.60 2482.99,3311.14 2483.29,3312.69 2484.50,3317.25"/>
    </edge>
    <edge id=":belfast_30" function="internal">
        <lane id=":belfast_30_0" index="0" speed="8.18" length="30.36" shape="2485.18,3317.06 2489.14,3327.56 2491.49,3330.87 2492.23,3326.98 2491.36,3315.90"/>
    </edge>
    <edge id=":belfast_31" function="internal">
        <lane id=":belfast_31_0" index="0" speed="5.80" length="15.00" shape="2485.18,3317.06 2488.37,3320.42 2489.05,3323.21 2487.23,3325.43 2482.90,3327.08"/>
    </edge>
    <edge id=":belfast_32" function="internal">
        <lane id=":belfast_32_0" index="0" speed="8.01" length="27.60" shape="2476.20,3333.03 2482.92,3339.76 2486.28,3341.01 2486.27,3336.78 2482.90,3327.08"/>
    </edge>
    <edge id=":belfast_33" function="internal">
        <lane id=":belfast_33_0" index="0" speed="9.34" length="36.52" shape="2476.20,3333.03 2483.62,3339.82 2487.48,3339.46 2487.78,3331.93 2484.50,3317.25"/>
    </edge>
    <edge id=":belfast_34" function="internal">
        <lane id=":belfast_34_0" index="0" speed="10.00" length="40.57" shape="2476.20,3333.03 2484.51,3340.26 2489.81,3339.81 2492.09,3331.69 2491.36,3315.90"/>
    </edge>
    <edge id=":belfast_35" function="internal">
        <lane id=":belfast_35_0" index="0" speed="10.00" length="37.12" shape="2476.20,3333.03 2485.38,3343.72 2492.35,3352.87 2496.03,3359.70 2495.36,3363.41"/>
    </edge>
    <edge id=":belfast_36" function="internal">
        <lane id=":belfast_36_0" index="0" speed="8.21" length="26.11" shape="2476.20,3333.03 2478.15,3338.99 2477.02,3346.48 2473.58,3352.56 2468.60,3354.33"/>
    </edge>
    <edge id=":belfast_37" function="internal">
        <lane id=":belfast_37_0" index="0" speed="7.99" length="25.01" shape="2476.20,3333.03 2478.00,3338.74 2476.79,3345.91 2473.38,3351.70 2468.60,3353.26"/>
    </edge>
    <edge id=":belfast_38" function="internal">
        <lane id=":belfast_38_0" index="0" speed="4.53" length="8.14" shape="2476.20,3333.03 2476.49,3334.88 2475.52,3337.14 2473.94,3338.80 2472.42,3338.80"/>
    </edge>
    <edge id=":belfast_39" function="internal">
        <lane id=":belfast_39_0" index="0" speed="5.03" length="10.50" shape="2476.20,3333.03 2477.49,3336.00 2477.28,3338.00 2475.55,3339.03 2472.31,3339.08"/>
    </edge>
    <edge id=":belfast_40" function="internal">
        <lane id=":belfast_40_0" index="0" speed="8.60" length="30.83" shape="2473.71,3335.65 2481.84,3342.01 2486.08,3342.71 2486.43,3337.73 2482.90,3327.08"/>
    </edge>
    <edge id=":belfast_41" function="internal">
        <lane id=":belfast_41_0" index="0" speed="9.88" length="39.27" shape="2473.71,3335.65 2482.36,3341.78 2487.04,3340.76 2487.76,3332.58 2484.50,3317.25"/>
    </edge>
    <edge id=":belfast_42" function="internal">
        <lane id=":belfast_42_0" index="0" speed="10.00" length="42.97" shape="2473.71,3335.65 2483.15,3342.02 2489.23,3340.86 2491.97,3332.15 2491.36,3315.90"/>
    </edge>
    <edge id=":belfast_43" function="internal">
        <lane id=":belfast_43_0" index="0" speed="10.00" length="36.54" shape="2473.71,3335.65 2483.81,3345.18 2491.61,3353.50 2495.88,3359.82 2495.36,3363.41"/>
    </edge>
    <edge id=":belfast_44" function="internal">
        <lane id=":belfast_44_0" index="0" speed="7.50" length="22.48" shape="2473.71,3335.65 2475.81,3340.62 2475.30,3347.21 2472.72,3352.68 2468.60,3354.33"/>
    </edge>
    <edge id=":belfast_45" function="internal">
        <lane id=":belfast_45_0" index="0" speed="7.27" length="21.33" shape="2473.71,3335.65 2475.65,3340.38 2475.05,3346.63 2472.51,3351.80 2468.60,3353.26"/>
    </edge>
    <edge id=":belfast_46" function="internal">
        <lane id=":belfast_46_0" index="0" speed="3.39" length="3.71" shape="2473.71,3335.65 2472.31,3339.08"/>
    </edge>
    <edge id=":belfast_47" function="internal">
        <lane id=":belfast_47_0" index="0" speed="3.73" length="4.98" shape="2473.71,3335.65 2474.57,3336.92 2474.65,3337.87 2473.93,3338.50 2472.42,3338.80"/>
    </edge>
    <edge id=":belfast_48" function="internal">
        <lane id=":belfast_48_0" index="0" speed="7.55" length="24.32" shape="2469.34,3346.35 2477.25,3349.11 2480.38,3348.82 2478.74,3345.47 2472.31,3339.08"/>
    </edge>
    <edge id=":belfast_49" function="internal">
        <lane id=":belfast_49_0" index="0" speed="7.61" length="24.68" shape="2469.34,3346.35 2477.34,3349.12 2480.52,3348.79 2478.88,3345.35 2472.42,3338.80"/>
    </edge>
    <edge id=":belfast_50" function="internal">
        <lane id=":belfast_50_0" index="0" speed="10.00" length="37.48" shape="2469.34,3346.35 2479.84,3349.16 2485.60,3346.88 2486.62,3339.52 2482.90,3327.08"/>
    </edge>
    <edge id=":belfast_51" function="internal">
        <lane id=":belfast_51_0" index="0" speed="10.00" length="46.08" shape="2469.34,3346.35 2480.13,3348.62 2486.25,3344.53 2487.71,3334.07 2484.50,3317.25"/>
    </edge>
    <edge id=":belfast_52" function="internal">
        <lane id=":belfast_52_0" index="0" speed="10.00" length="49.23" shape="2469.34,3346.35 2480.75,3348.62 2488.22,3344.30 2491.76,3333.39 2491.36,3315.90"/>
    </edge>
    <edge id=":belfast_53" function="internal">
        <lane id=":belfast_53_0" index="0" speed="9.87" length="33.06" shape="2469.34,3346.35 2480.86,3351.39 2490.28,3356.22 2495.72,3360.39 2495.36,3363.41"/>
    </edge>
    <edge id=":belfast_54" function="internal">
        <lane id=":belfast_54_0" index="0" speed="4.55" length="8.20" shape="2469.34,3346.35 2470.44,3347.89 2470.61,3350.38 2469.96,3352.58 2468.60,3353.26"/>
    </edge>
    <edge id=":belfast_55" function="internal">
        <lane id=":belfast_55_0" index="0" speed="5.29" length="11.70" shape="2469.34,3346.35 2472.15,3348.62 2472.96,3350.70 2471.78,3352.61 2468.60,3354.33"/>
    </edge>
    <edge id=":belfast_56" function="internal">
        <lane id=":belfast_56_0" index="0" speed="8.18" length="27.57" shape="2468.58,3349.93 2477.51,3351.74 2481.11,3350.53 2479.37,3346.31 2472.31,3339.08"/>
    </edge>
    <edge id=":belfast_57" function="internal">
        <lane id=":belfast_57_0" index="0" speed="8.23" length="27.85" shape="2468.58,3349.93 2477.57,3351.73 2481.20,3350.48 2479.49,3346.17 2472.42,3338.80"/>
    </edge>
    <edge id=":belfast_58" function="internal">