<?xml version="1.0" encoding="UTF-8"?>

<!-- generated on 2025-02-19 12:55:54 by Eclipse SUMO netconvert Version 1.18.0
<configuration xmlns:xsi="http://www.w3.org/2001/XMLSchema-instance" xsi:noNamespaceSchemaLocation="http://sumo.dlr.de/xsd/netconvertConfiguration.xsd">

    <input>
        <node-files value="nod.xml"/>
        <edge-files value="edge_xmls/08922.xml"/>
    </input>

    <output>
        <output-file value="networks/08922.net.xml"/>
    </output>

</configuration>
-->

<net version="1.16" junctionCornerDetail="5" limitTurnSpeed="5.50" xmlns:xsi="http://www.w3.org/2001/XMLSchema-instance" xsi:noNamespaceSchemaLocation="http://sumo.dlr.de/xsd/net_file.xsd">

    <location netOffset="-682.00,4368.00" convBoundary="0.00,0.00,2498.00,3881.00" origBoundary="682.00,-4368.00,3180.00,-487.00" projParameter="!"/>

    <edge id=":antrim_0" function="internal">
        <lane id=":antrim_0_0" index="0" speed="10.00" length="19.24" shape="2293.49,3486.31 2289.61,3488.40 2284.88,3490.58 2280.06,3492.57 2275.91,3494.09"/>
    </edge>
    <edge id=":antrim_1" function="internal">
        <lane id=":antrim_1_0" index="0" speed="10.00" length="37.62" shape="2293.49,3486.31 2288.47,3487.58 2280.74,3486.91 2270.29,3484.32 2257.13,3479.80"/>
    </edge>
    <edge id=":antrim_2" function="internal">
        <lane id=":antrim_2_0" index="0" speed="10.00" length="63.21" shape="2293.49,3486.31 2287.05,3486.62 2275.17,3483.01 2257.85,3475.50 2235.09,3464.07"/>
    </edge>
    <edge id=":antrim_3" function="internal">
        <lane id=":antrim_3_0" index="0" speed="10.00" length="62.90" shape="2293.49,3486.31 2287.30,3486.10 2276.32,3480.81 2260.57,3470.47 2240.04,3455.05"/>
    </edge>
    <edge id=":antrim_4" function="internal">
        <lane id=":antrim_4_0" index="0" speed="10.00" length="63.86" shape="2293.49,3486.31 2286.28,3486.62 2275.19,3481.11 2260.21,3469.79 2241.35,3452.66"/>
    </edge>
    <edge id=":antrim_5" function="internal">
        <lane id=":antrim_5_0" index="0" speed="10.00" length="63.78" shape="2293.49,3486.31 2287.48,3485.70 2277.19,3479.16 2262.61,3466.68 2243.76,3448.26"/>
    </edge>
    <edge id=":antrim_6" function="internal">
        <lane id=":antrim_6_0" index="0" speed="10.00" length="53.79" shape="2293.49,3486.31 2288.04,3486.01 2279.50,3480.34 2267.88,3469.29 2253.17,3452.88"/>
    </edge>
    <edge id=":antrim_7" function="internal">
        <lane id=":antrim_7_0" index="0" speed="7.96" length="19.70" shape="2293.49,3486.31 2289.52,3487.62 2286.63,3486.03 2284.83,3481.56 2284.12,3474.19"/>
    </edge>
    <edge id=":antrim_8" function="internal">
        <lane id=":antrim_8_0" index="0" speed="7.86" length="19.57" shape="2293.49,3486.31 2289.51,3487.64 2286.72,3486.07 2285.12,3481.58 2284.72,3474.18"/>
    </edge>
    <edge id=":antrim_9" function="internal">
        <lane id=":antrim_9_0" index="0" speed="10.00" length="24.93" shape="2287.92,3474.13 2287.04,3481.39 2284.75,3487.13 2281.04,3491.37 2275.91,3494.09"/>
    </edge>
    <edge id=":antrim_10" function="internal">
        <lane id=":antrim_10_0" index="0" speed="10.00" length="37.53" shape="2287.92,3474.13 2285.27,3481.91 2278.51,3484.63 2268.76,3483.52 2257.13,3479.80"/>
    </edge>
    <edge id=":antrim_11" function="internal">
        <lane id=":antrim_11_0" index="0" speed="10.00" length="59.53" shape="2287.92,3474.13 2283.25,3480.66 2271.31,3479.77 2254.46,3473.55 2235.09,3464.07"/>
    </edge>
    <edge id=":antrim_12" function="internal">
        <lane id=":antrim_12_0" index="0" speed="10.00" length="57.95" shape="2287.92,3474.13 2283.47,3479.99 2272.31,3476.87 2256.98,3467.60 2240.04,3455.05"/>
    </edge>
    <edge id=":antrim_13" function="internal">
        <lane id=":antrim_13_0" index="0" speed="10.00" length="57.88" shape="2287.92,3474.13 2283.63,3479.62 2272.98,3475.13 2258.56,3464.05 2242.94,3449.75"/>
    </edge>
    <edge id=":antrim_14" function="internal">
        <lane id=":antrim_14_0" index="0" speed="10.00" length="57.98" shape="2287.92,3474.13 2283.68,3479.51 2273.18,3474.65 2259.02,3463.05 2243.76,3448.26"/>
    </edge>
    <edge id=":antrim_15" function="internal">
        <lane id=":antrim_15_0" index="0" speed="10.00" length="48.62" shape="2287.92,3474.13 2284.41,3479.95 2275.92,3475.94 2264.74,3465.71 2253.17,3452.88"/>
    </edge>
    <edge id=":antrim_16" function="internal">
        <lane id=":antrim_16_0" index="0" speed="3.85" length="5.38" shape="2287.92,3474.13 2287.31,3475.33 2286.02,3475.75 2284.72,3475.37 2284.12,3474.19"/>
    </edge>
    <edge id=":antrim_17" function="internal">
        <lane id=":antrim_17_0" index="0" speed="3.65" length="4.68" shape="2287.92,3474.13 2287.14,3475.34 2286.35,3475.76 2285.54,3475.37 2284.72,3474.18"/>
    </edge>
    <edge id=":antrim_18" function="internal">
        <lane id=":antrim_18_0" index="0" speed="7.92" length="24.48" shape="2269.05,3461.00 2275.71,3470.30 2280.44,3475.60 2283.24,3476.90 2284.12,3474.19"/>
    </edge>
    <edge id=":antrim_19" function="internal">
        <lane id=":antrim_19_0" index="0" speed="8.08" length="25.07" shape="2269.05,3461.00 2275.83,3470.42 2280.70,3475.76 2283.66,3477.01 2284.72,3474.18"/>
    </edge>
    <edge id=":antrim_20" function="internal">
        <lane id=":antrim_20_0" index="0" speed="10.00" length="38.11" shape="2269.05,3461.00 2276.03,3472.24 2280.35,3482.06 2280.74,3489.62 2275.91,3494.09"/>
    </edge>
    <edge id=":antrim_21" function="internal">
        <lane id=":antrim_21_0" index="0" speed="8.79" length="29.97" shape="2269.05,3461.00 2271.73,3468.88 2270.02,3475.88 2264.85,3480.15 2257.13,3479.80"/>
    </edge>
    <edge id=":antrim_22" function="internal">
        <lane id=":antrim_22_0" index="0" speed="10.00" length="45.52" shape="2269.05,3461.00 2270.57,3469.34 2262.33,3471.73 2248.96,3469.52 2235.09,3464.07"/>
    </edge>
    <edge id=":antrim_23" function="internal">
        <lane id=":antrim_23_0" index="0" speed="9.44" length="39.56" shape="2269.05,3461.00 2270.22,3467.25 2262.85,3466.95 2251.33,3462.18 2240.04,3455.05"/>
    </edge>
    <edge id=":antrim_24" function="internal">
        <lane id=":antrim_24_0" index="0" speed="9.07" length="37.80" shape="2269.05,3461.00 2270.30,3466.31 2263.57,3464.39 2253.06,3457.97 2242.94,3449.75"/>
    </edge>
    <edge id=":antrim_25" function="internal">
        <lane id=":antrim_25_0" index="0" speed="7.19" length="23.77" shape="2269.05,3461.00 2269.81,3464.26 2265.60,3462.85 2259.14,3458.49 2253.17,3452.88"/>
    </edge>
    <edge id=":antrim_26" function="internal">
        <lane id=":antrim_26_0" index="0" speed="9.42" length="41.36" shape="2269.05,3461.00 2257.95,3467.30 2250.04,3467.27 2245.31,3460.93 2243.76,3448.26"/>
    </edge>
    <edge id=":antrim_27" function="internal">
        <lane id=":antrim_27_0" index="0" speed="10.00" length="40.40" shape="2255.61,3450.80 2268.16,3464.92 2277.09,3473.52 2282.41,3476.62 2284.12,3474.19"/>
    </edge>
    <edge id=":antrim_28" function="internal">
        <lane id=":antrim_28_0" index="0" speed="10.00" length="40.96" shape="2255.61,3450.80 2268.26,3465.00 2277.33,3473.63 2282.81,3476.69 2284.72,3474.18"/>
    </edge>
    <edge id=":antrim_29" function="internal">
        <lane id=":antrim_29_0" index="0" speed="10.00" length="51.87" shape="2255.61,3450.80 2267.55,3465.60 2276.23,3478.68 2279.67,3488.65 2275.91,3494.09"/>
    </edge>
    <edge id=":antrim_30" function="internal">
        <lane id=":antrim_30_0" index="0" speed="9.72" length="38.87" shape="2255.61,3450.80 2262.38,3461.32 2265.95,3472.05 2264.73,3479.40 2257.13,3479.80"/>
    </edge>
    <edge id=":antrim_31" function="internal">
        <lane id=":antrim_31_0" index="0" speed="8.84" length="33.51" shape="2255.61,3450.80 2257.80,3458.13 2253.15,3463.68 2244.60,3466.11 2235.09,3464.07"/>
    </edge>
    <edge id=":antrim_32" function="internal">
        <lane id=":antrim_32_0" index="0" speed="7.08" length="22.25" shape="2255.61,3450.80 2256.62,3455.13 2252.65,3457.56 2246.26,3457.68 2240.04,3455.05"/>
    </edge>
    <edge id=":antrim_33" function="internal">
        <lane id=":antrim_33_0" index="0" speed="6.21" length="17.29" shape="2255.61,3450.80 2256.28,3453.60 2252.90,3454.13 2247.71,3452.74 2242.94,3449.75"/>
    </edge>
    <edge id=":antrim_34" function="internal">
        <lane id=":antrim_34_0" index="0" speed="5.30" length="12.12" shape="2255.61,3450.80 2243.76,3448.26"/>
    </edge>
    <edge id=":antrim_35" function="internal">
        <lane id=":antrim_35_0" index="0" speed="3.65" length="4.67" shape="2255.61,3450.80 2255.78,3452.24 2255.43,3453.06 2254.56,3453.27 2253.17,3452.88"/>
    </edge>
    <edge id=":antrim_36" function="internal">
        <lane id=":antrim_36_0" index="0" speed="9.37" length="40.78" shape="2236.39,3461.71 2249.88,3468.11 2254.98,3469.13 2251.70,3464.78 2240.04,3455.05"/>
    </edge>
    <edge id=":antrim_37" function="internal">
        <lane id=":antrim_37_0" index="0" speed="9.08" length="36.74" shape="2236.39,3461.71 2248.24,3467.07 2253.01,3467.35 2250.72,3462.55 2241.35,3452.66"/>
    </edge>
    <edge id=":antrim_38" function="internal">
        <lane id=":antrim_38_0" index="0" speed="9.42" length="39.23" shape="2236.39,3461.71 2248.92,3467.31 2254.07,3467.42 2251.81,3462.05 2242.15,3451.19"/>
    </edge>
    <edge id=":antrim_39" function="internal">
        <lane id=":antrim_39_0" index="0" speed="10.00" length="48.11" shape="2236.39,3461.71 2253.62,3469.47 2262.16,3470.59 2262.01,3465.06 2253.17,3452.88"/>
    </edge>
    <edge id=":antrim_40" function="internal">
        <lane id=":antrim_40_0" index="0" speed="10.00" length="52.86" shape="2236.39,3461.71 2257.36,3471.73 2272.30,3477.15 2281.22,3477.97 2284.12,3474.19"/>
    </edge>
    <edge id=":antrim_41" function="internal">
        <lane id=":antrim_41_0" index="0" speed="10.00" length="53.39" shape="2236.39,3461.71 2257.43,3471.75 2272.50,3477.18 2281.60,3477.99 2284.72,3474.18"/>
    </edge>
    <edge id=":antrim_42" function="internal">
        <lane id=":antrim_42_0" index="0" speed="10.00" length="55.82" shape="2236.39,3461.71 2254.88,3471.68 2270.05,3481.27 2278.28,3489.17 2275.91,3494.09"/>
    </edge>
    <edge id=":antrim_43" function="internal">
        <lane id=":antrim_43_0" index="0" speed="8.76" length="36.37" shape="2236.39,3461.71 2247.38,3468.24 2257.22,3475.40 2261.84,3480.24 2257.13,3479.80"/>
    </edge>
    <edge id=":antrim_44" function="internal">
        <lane id=":antrim_44_0" index="0" speed="3.46" length="3.94" shape="2236.39,3461.71 2236.95,3462.78 2236.92,3463.54 2236.30,3463.97 2235.09,3464.07"/>
    </edge>
    <edge id=":antrim_45" function="internal">
        <lane id=":antrim_45_0" index="0" speed="3.79" length="4.85" shape="2275.62,3493.18 2274.08,3494.14 2273.62,3494.61 2274.23,3494.60 2275.91,3494.09"/>
    </edge>
    <edge id=":antrim_46" function="internal">
        <lane id=":antrim_46_0" index="0" speed="8.68" length="25.68" shape="2275.62,3493.18 2276.96,3490.89 2274.33,3487.90 2267.72,3484.20 2257.13,3479.80"/>
    </edge>
    <edge id=":antrim_47" function="internal">
        <lane id=":antrim_47_0" index="0" speed="10.00" length="51.64" shape="2275.62,3493.18 2275.74,3489.82 2269.02,3483.85 2255.47,3475.26 2235.09,3464.07"/>
    </edge>
    <edge id=":antrim_48" function="internal">
        <lane id=":antrim_48_0" index="0" speed="10.00" length="54.00" shape="2275.62,3493.18 2276.22,3489.15 2270.49,3481.46 2258.43,3470.09 2240.04,3455.05"/>
    </edge>
    <edge id=":antrim_49" function="internal">
        <lane id=":antrim_49_0" index="0" speed="10.00" length="53.86" shape="2275.62,3493.18 2275.30,3489.59 2269.48,3481.64 2258.17,3469.33 2241.35,3452.66"/>
    </edge>
    <edge id=":antrim_50" function="internal">
        <lane id=":antrim_50_0" index="0" speed="10.00" length="54.49" shape="2275.62,3493.18 2275.38,3489.48 2269.72,3481.25 2258.65,3468.48 2242.15,3451.19"/>
    </edge>
    <edge id=":antrim_51" function="internal">
        <lane id=":antrim_51_0" index="0" speed="10.00" length="48.12" shape="2275.62,3493.18 2277.19,3488.93 2273.97,3480.80 2265.96,3468.78 2253.17,3452.88"/>
    </edge>
    <edge id=":antrim_52" function="internal">
        <lane id=":antrim_52_0" index="0" speed="10.00" length="21.83" shape="2275.62,3493.18 2279.44,3490.08 2282.13,3485.89 2283.69,3480.59 2284.12,3474.19"/>
    </edge>
    <edge id=":antrim_53" function="internal">
        <lane id=":antrim_53_0" index="0" speed="10.00" length="22.02" shape="2275.62,3493.18 2279.49,3490.07 2282.29,3485.87 2284.04,3480.58 2284.72,3474.18"/>
    </edge>
    <edge id=":athlone_0" function="internal">
        <lane id=":athlone_0_0" index="0" speed="9.63" length="42.16" shape="1256.96,2013.59 1255.58,1998.60 1253.37,1993.68 1250.35,1998.85 1246.50,2014.10"/>
    </edge>
    <edge id=":athlone_1" function="internal">
        <lane id=":athlone_1_0" index="0" speed="9.56" length="39.04" shape="1256.96,2013.59 1255.64,1994.91 1253.85,1983.76 1251.61,1980.14 1248.91,1984.05"/>
    </edge>
    <edge id=":athlone_2" function="internal">
        <lane id=":athlone_2_0" index="0" speed="10.00" length="44.33" shape="1256.96,2013.59 1255.55,1992.96 1253.66,1979.34 1251.30,1972.71 1248.46,1973.09"/>
    </edge>
    <edge id=":athlone_3" function="internal">
        <lane id=":athlone_3_0" index="0" speed="10.00" length="59.28" shape="1256.96,2013.59 1255.04,1990.89 1251.76,1974.14 1247.14,1963.34 1241.17,1958.51"/>
    </edge>
    <edge id=":athlone_4" function="internal">
        <lane id=":athlone_4_0" index="0" speed="10.00" length="60.90" shape="1256.96,2013.59 1256.68,2002.64 1256.41,1983.05 1256.52,1963.52 1257.34,1952.73"/>
    </edge>
    <edge id=":athlone_5" function="internal">
        <lane id=":athlone_5_0" index="0" speed="10.00" length="60.75" shape="1256.96,2013.59 1256.70,2002.65 1256.52,1983.10 1256.75,1963.62 1257.73,1952.90"/>
    </edge>
    <edge id=":athlone_6" function="internal">
        <lane id=":athlone_6_0" index="0" speed="10.00" length="56.55" shape="1256.96,2013.59 1256.53,1993.05 1257.88,1976.22 1261.80,1965.45 1269.10,1963.12"/>
    </edge>
    <edge id=":athlone_7" function="internal">
        <lane id=":athlone_7_0" index="0" speed="10.00" length="43.89" shape="1256.96,2013.59 1260.11,2002.79 1268.64,1997.65 1279.22,1998.68 1288.51,2006.36"/>
    </edge>
    <edge id=":athlone_8" function="internal">
        <lane id=":athlone_8_0" index="0" speed="9.87" length="41.00" shape="1263.38,2022.80 1258.49,2007.10 1254.05,2000.41 1250.05,2002.75 1246.50,2014.10"/>
    </edge>
    <edge id=":athlone_9" function="internal">
        <lane id=":athlone_9_0" index="0" speed="10.00" length="43.12" shape="1263.38,2022.80 1258.10,2003.09 1253.93,1990.06 1250.87,1983.72 1248.91,1984.05"/>
    </edge>
    <edge id=":athlone_10" function="internal">
        <lane id=":athlone_10_0" index="0" speed="10.00" length="52.07" shape="1263.38,2022.80 1257.52,2000.21 1253.08,1984.40 1250.06,1975.35 1248.46,1973.09"/>
    </edge>
    <edge id=":athlone_11" function="internal">
        <lane id=":athlone_11_0" index="0" speed="10.00" length="68.20" shape="1266.21,2020.95 1258.99,1994.68 1252.41,1975.51 1246.47,1963.45 1241.17,1958.51"/>
    </edge>
    <edge id=":athlone_12" function="internal">
        <lane id=":athlone_12_0" index="0" speed="10.00" length="68.91" shape="1266.21,2020.95 1263.03,2004.82 1259.75,1983.15 1257.48,1963.32 1257.34,1952.73"/>
    </edge>
    <edge id=":athlone_13" function="internal">
        <lane id=":athlone_13_0" index="0" speed="10.00" length="67.28" shape="1269.04,2019.10 1265.44,2003.27 1261.27,1982.27 1258.15,1963.13 1257.73,1952.90"/>
    </edge>
    <edge id=":athlone_14" function="internal">
        <lane id=":athlone_14_0" index="0" speed="10.00" length="60.94" shape="1269.04,2019.10 1264.04,1997.11 1261.42,1978.42 1262.63,1966.07 1269.10,1963.12"/>
    </edge>
    <edge id=":athlone_15" function="internal">
        <lane id=":athlone_15_0" index="0" speed="8.84" length="33.97" shape="1269.04,2019.10 1269.13,2008.61 1272.41,2003.00 1278.87,2002.25 1288.51,2006.36"/>
    </edge>
    <edge id=":athlone_16" function="internal">
        <lane id=":athlone_16_0" index="0" speed="5.46" length="10.19" shape="1268.79,1957.47 1265.83,1959.05 1264.90,1960.52 1265.99,1961.87 1269.10,1963.12"/>
    </edge>
    <edge id=":athlone_17" function="internal">
        <lane id=":athlone_17_0" index="0" speed="10.00" length="55.29" shape="1268.79,1957.47 1266.14,1962.13 1268.54,1971.83 1275.99,1986.57 1288.51,2006.36"/>
    </edge>
    <edge id=":athlone_18" function="internal">
        <lane id=":athlone_18_0" index="0" speed="10.00" length="61.93" shape="1268.79,1957.47 1263.12,1962.77 1257.52,1973.97 1251.98,1991.08 1246.50,2014.10"/>
    </edge>
    <edge id=":athlone_19" function="internal">
        <lane id=":athlone_19_0" index="0" speed="10.00" length="34.00" shape="1268.79,1957.47 1263.22,1960.91 1258.05,1966.49 1253.28,1974.20 1248.91,1984.05"/>
    </edge>
    <edge id=":athlone_20" function="internal">
        <lane id=":athlone_20_0" index="0" speed="10.00" length="25.73" shape="1268.79,1957.47 1264.10,1960.16 1258.06,1964.52 1252.30,1969.26 1248.46,1973.09"/>
    </edge>
    <edge id=":athlone_21" function="internal">
        <lane id=":athlone_21_0" index="0" speed="10.00" length="27.80" shape="1268.79,1957.47 1263.20,1958.63 1255.05,1959.21 1246.87,1959.18 1241.17,1958.51"/>
    </edge>
    <edge id=":athlone_22" function="internal">
        <lane id=":athlone_22_0" index="0" speed="6.33" length="13.63" shape="1268.79,1957.47 1265.29,1957.91 1261.29,1957.13 1258.28,1955.37 1257.73,1952.90"/>
    </edge>
    <edge id=":athlone_23" function="internal">
        <lane id=":athlone_23_0" index="0" speed="7.32" length="18.32" shape="1268.79,1957.47 1262.24,1959.57 1258.15,1959.48 1256.52,1957.20 1257.34,1952.73"/>
    </edge>
    <edge id=":athlone_24" function="internal">
        <lane id=":athlone_24_0" index="0" speed="6.92" length="12.92" shape="1262.22,1954.86 1261.29,1957.33 1262.12,1959.54 1264.73,1961.47 1269.10,1963.12"/>
    </edge>
    <edge id=":athlone_25" function="internal">
        <lane id=":athlone_25_0" index="0" speed="10.00" length="58.59" shape="1262.22,1954.86 1262.26,1960.39 1266.65,1970.81 1275.40,1986.14 1288.51,2006.36"/>
    </edge>
    <edge id=":athlone_26" function="internal">
        <lane id=":athlone_26_0" index="0" speed="10.00" length="61.33" shape="1262.22,1954.86 1258.70,1965.16 1253.68,1984.18 1248.99,2003.36 1246.50,2014.10"/>
    </edge>
    <edge id=":athlone_27" function="internal">
        <lane id=":athlone_27_0" index="0" speed="10.00" length="32.11" shape="1262.22,1954.86 1259.19,1960.50 1255.16,1969.24 1251.34,1978.10 1248.91,1984.05"/>
    </edge>
    <edge id=":athlone_28" function="internal">
        <lane id=":athlone_28_0" index="0" speed="10.00" length="22.84" shape="1262.22,1954.86 1248.46,1973.09"/>
    </edge>
    <edge id=":athlone_29" function="internal">
        <lane id=":athlone_29_0" index="0" speed="10.00" length="22.77" shape="1262.22,1954.86 1258.82,1958.08 1254.18,1959.77 1248.30,1959.91 1241.17,1958.51"/>
    </edge>
    <edge id=":athlone_30" function="internal">
        <lane id=":athlone_30_0" index="0" speed="4.19" length="6.26" shape="1262.22,1954.86 1260.94,1955.38 1259.17,1954.97 1257.70,1953.97 1257.34,1952.73"/>
    </edge>
    <edge id=":athlone_31" function="internal">
        <lane id=":athlone_31_0" index="0" speed="4.37" length="7.16" shape="1262.22,1954.86 1260.36,1956.05 1258.99,1956.12 1258.12,1955.07 1257.73,1952.90"/>
    </edge>
    <edge id=":athlone_32" function="internal">
        <lane id=":athlone_32_0" index="0" speed="8.97" length="16.99" shape="1242.03,1955.42 1247.86,1956.62 1252.35,1956.57 1255.51,1955.27 1257.34,1952.73"/>
    </edge>
    <edge id=":athlone_33" function="internal">
        <lane id=":athlone_33_0" index="0" speed="9.22" length="17.24" shape="1242.03,1955.42 1247.91,1956.64 1252.48,1956.62 1255.76,1955.37 1257.73,1952.90"/>
    </edge>
    <edge id=":athlone_34" function="internal">
        <lane id=":athlone_34_0" index="0" speed="10.00" length="28.14" shape="1242.03,1955.42 1269.10,1963.12"/>
    </edge>
    <edge id=":athlone_35" function="internal">
        <lane id=":athlone_35_0" index="0" speed="10.00" length="69.04" shape="1242.03,1955.42 1250.93,1963.37 1266.03,1979.84 1280.74,1996.84 1288.51,2006.36"/>
    </edge>
    <edge id=":athlone_36" function="internal">
        <lane id=":athlone_36_0" index="0" speed="10.00" length="62.21" shape="1242.03,1955.42 1248.25,1960.76 1251.07,1972.31 1250.49,1990.09 1246.50,2014.10"/>
    </edge>
    <edge id=":athlone_37" function="internal">
        <lane id=":athlone_37_0" index="0" speed="10.00" length="34.49" shape="1242.03,1955.42 1249.58,1959.33 1252.69,1965.42 1252.18,1973.66 1248.91,1984.05"/>
    </edge>
    <edge id=":athlone_38" function="internal">
        <lane id=":athlone_38_0" index="0" speed="9.08" length="24.19" shape="1242.03,1955.42 1248.70,1958.28 1252.00,1962.18 1251.92,1967.12 1248.46,1973.09"/>
    </edge>
    <edge id=":athlone_39" function="internal">
        <lane id=":athlone_39_0" index="0" speed="3.65" length="4.67" shape="1242.03,1955.42 1242.97,1956.52 1243.14,1957.40 1242.54,1958.06 1241.17,1958.51"/>
    </edge>
    <edge id=":belfast_0" function="internal">
        <lane id=":belfast_0_0" index="0" speed="10.00" length="29.67" shape="2493.28,3336.96 2495.70,3347.64 2496.37,3355.92 2495.30,3361.78 2492.48,3365.23"/>
    </edge>
    <edge id=":belfast_1" function="internal">
        <lane id=":belfast_1_0" index="0" speed="10.00" length="29.60" shape="2493.28,3336.96 2495.70,3347.65 2496.36,3355.90 2495.27,3361.73 2492.42,3365.13"/>
    </edge>
    <edge id=":belfast_2" function="internal">
        <lane id=":belfast_2_0" index="0" speed="7.96" length="24.15" shape="2493.28,3336.96 2494.83,3344.75 2495.01,3351.86 2493.20,3355.95 2488.76,3354.67"/>
    </edge>
    <edge id=":belfast_3" function="internal">
        <lane id=":belfast_3_0" index="0" speed="4.58" length="8.31" shape="2493.28,3336.96 2492.95,3339.02 2491.28,3340.24 2489.20,3340.29 2487.69,3338.86"/>
    </edge>
    <edge id=":belfast_4" function="internal">
        <lane id=":belfast_4_0" index="0" speed="4.23" length="6.87" shape="2493.28,3336.96 2492.99,3338.66 2491.58,3339.67 2489.87,3339.71 2488.66,3338.51"/>
    </edge>
    <edge id=":belfast_5" function="internal">
        <lane id=":belfast_5_0" index="0" speed="4.16" length="6.62" shape="2493.28,3336.96 2493.00,3338.60 2491.64,3339.57 2489.99,3339.60 2488.84,3338.45"/>
    </edge>
    <edge id=":belfast_6" function="internal">
        <lane id=":belfast_6_0" index="0" speed="3.31" length="3.39" shape="2493.28,3336.96 2492.98,3337.96 2492.51,3338.41 2491.87,3338.30 2491.06,3337.64"/>
    </edge>
    <edge id=":belfast_7" function="internal">
        <lane id=":belfast_7_0" index="0" speed="8.66" length="35.57" shape="2494.75,3336.51 2490.08,3324.10 2487.91,3320.15 2488.24,3324.67 2491.06,3337.64"/>
    </edge>
    <edge id=":belfast_8" function="internal">
        <lane id=":belfast_8_0" index="0" speed="10.00" length="30.97" shape="2494.75,3336.51 2497.60,3346.74 2498.17,3354.93 2496.47,3361.10 2492.48,3365.23"/>
    </edge>
    <edge id=":belfast_9" function="internal">
        <lane id=":belfast_9_0" index="0" speed="10.00" length="30.92" shape="2494.75,3336.51 2497.61,3346.76 2498.17,3354.94 2496.45,3361.07 2492.42,3365.13"/>
    </edge>
    <edge id=":belfast_10" function="internal">
        <lane id=":belfast_10_0" index="0" speed="7.15" length="19.76" shape="2491.68,3337.45 2492.69,3342.97 2492.66,3349.48 2491.41,3354.28 2488.76,3354.67"/>
    </edge>
    <edge id=":belfast_11" function="internal">
        <lane id=":belfast_11_0" index="0" speed="4.00" length="5.99" shape="2491.68,3337.45 2491.51,3338.91 2490.31,3339.80 2488.80,3339.87 2487.69,3338.86"/>
    </edge>
    <edge id=":belfast_12" function="internal">
        <lane id=":belfast_12_0" index="0" speed="10.00" length="380.34" shape="2491.68,3337.45 2443.73,3203.13 2427.28,3158.52 2442.31,3203.62 2488.84,3338.45"/>
    </edge>
    <edge id=":belfast_13" function="internal">
        <lane id=":belfast_13_0" index="0" speed="3.65" length="4.67" shape="2491.68,3337.45 2491.32,3338.85 2490.70,3339.49 2489.81,3339.38 2488.66,3338.51"/>
    </edge>
    <edge id=":belfast_14" function="internal">
        <lane id=":belfast_14_0" index="0" speed="3.21" length="2.97" shape="2488.02,3338.74 2487.46,3337.78 2487.22,3337.48 2487.29,3337.84 2487.69,3338.86"/>
    </edge>
    <edge id=":belfast_15" function="internal">
        <lane id=":belfast_15_0" index="0" speed="3.58" length="4.16" shape="2488.02,3338.74 2488.81,3340.08 2489.18,3340.49 2489.13,3339.96 2488.66,3338.51"/>
    </edge>
    <edge id=":belfast_16" function="internal">
        <lane id=":belfast_16_0" index="0" speed="3.83" length="5.06" shape="2488.02,3338.74 2488.99,3340.36 2489.44,3340.86 2489.39,3340.22 2488.84,3338.45"/>
    </edge>
    <edge id=":belfast_17" function="internal">
        <lane id=":belfast_17_0" index="0" speed="5.50" length="12.26" shape="2488.02,3338.74 2490.37,3342.55 2491.66,3343.64 2491.89,3342.00 2491.06,3337.64"/>
    </edge>
    <edge id=":belfast_18" function="internal">
        <lane id=":belfast_18_0" index="0" speed="10.00" length="28.84" shape="2488.02,3338.74 2492.85,3348.58 2495.20,3356.28 2495.08,3361.83 2492.48,3365.23"/>
    </edge>
    <edge id=":belfast_19" function="internal">
        <lane id=":belfast_19_0" index="0" speed="10.00" length="28.77" shape="2488.02,3338.74 2492.85,3348.58 2495.19,3356.26 2495.05,3361.78 2492.42,3365.13"/>
    </edge>
    <edge id=":belfast_20" function="internal">
        <lane id=":belfast_20_0" index="0" speed="7.17" length="21.25" shape="2488.02,3338.74 2490.93,3345.27 2492.60,3351.68 2492.17,3355.60 2488.76,3354.67"/>
    </edge>
    <edge id=":bray_0" function="internal">
        <lane id=":bray_0_0" index="0" speed="3.48" length="3.63" shape="2440.77,1647.38 2441.38,1648.42 2441.71,1648.64 2441.77,1648.05 2441.55,1646.64"/>
    </edge>
    <edge id=":bray_1" function="internal">
        <lane id=":bray_1_0" index="0" speed="10.00" length="37.01" shape="2440.77,1647.38 2442.23,1654.31 2443.13,1665.61 2443.43,1676.99 2443.05,1684.18"/>
    </edge>
    <edge id=":bray_2" function="internal">
        <lane id=":bray_2_0" index="0" speed="10.00" length="37.43" shape="2440.77,1647.38 2442.98,1654.72 2442.53,1663.00 2439.41,1672.24 2433.63,1682.43"/>
    </edge>
    <edge id=":bray_3" function="internal">
        <lane id=":bray_3_0" index="0" speed="10.00" length="38.75" shape="2440.77,1647.38 2443.14,1655.74 2441.43,1663.75 2435.65,1671.41 2425.80,1678.73"/>
    </edge>
    <edge id=":bray_4" function="internal">
        <lane id=":bray_4_0" index="0" speed="8.22" length="23.10" shape="2440.77,1647.38 2443.26,1654.10 2442.51,1658.32 2438.51,1660.03 2431.27,1659.23"/>
    </edge>
    <edge id=":bray_5" function="internal">
        <lane id=":bray_5_0" index="0" speed="5.35" length="11.13" shape="2440.77,1647.38 2441.18,1650.34 2439.83,1652.77 2437.49,1653.88 2434.90,1652.90"/>
    </edge>
    <edge id=":bray_6" function="internal">
        <lane id=":bray_6_0" index="0" speed="3.70" length="4.86" shape="2440.77,1647.38 2441.02,1648.86 2440.69,1649.73 2439.80,1650.00 2438.34,1649.66"/>
    </edge>
    <edge id=":bray_7" function="internal">
        <lane id=":bray_7_0" index="0" speed="4.05" length="5.52" shape="2437.24,1650.70 2435.75,1649.47 2435.03,1649.27 2435.09,1650.09 2435.92,1651.94"/>
    </edge>
    <edge id=":bray_8" function="internal">
        <lane id=":bray_8_0" index="0" speed="5.57" length="10.88" shape="2437.24,1650.70 2439.85,1652.62 2441.44,1652.58 2442.01,1650.59 2441.55,1646.64"/>
    </edge>
    <edge id=":bray_9" function="internal">
        <lane id=":bray_9_0" index="0" speed="10.00" length="35.39" shape="2437.24,1650.70 2441.54,1656.44 2443.94,1663.94 2444.45,1673.18 2443.05,1684.18"/>
    </edge>
    <edge id=":bray_10" function="internal">
        <lane id=":bray_10_0" index="0" speed="10.00" length="34.75" shape="2437.24,1650.70 2441.08,1656.45 2441.76,1663.66 2439.28,1672.32 2433.63,1682.43"/>
    </edge>
    <edge id=":bray_11" function="internal">
        <lane id=":bray_11_0" index="0" speed="10.00" length="30.57" shape="2437.24,1650.70 2438.51,1656.10 2435.53,1663.49 2430.13,1670.82 2424.11,1676.01"/>
    </edge>
    <edge id=":bray_12" function="internal">
        <lane id=":bray_12_0" index="0" speed="6.11" length="14.15" shape="2437.24,1650.70 2438.89,1653.88 2437.96,1656.93 2435.17,1659.00 2431.27,1659.23"/>
    </edge>
    <edge id=":bray_13" function="internal">
        <lane id=":bray_13_0" index="0" speed="3.65" length="4.68" shape="2437.24,1650.70 2437.48,1652.13 2437.17,1652.97 2436.31,1653.22 2434.90,1652.90"/>
    </edge>
    <edge id=":bray_14" function="internal">
        <lane id=":bray_14_0" index="0" speed="3.98" length="5.27" shape="2437.19,1650.74 2435.76,1649.58 2435.08,1649.39 2435.13,1650.18 2435.92,1651.94"/>
    </edge>
    <edge id=":bray_15" function="internal">
        <lane id=":bray_15_0" index="0" speed="5.58" length="10.94" shape="2437.19,1650.74 2439.83,1652.65 2441.43,1652.61 2442.00,1650.60 2441.55,1646.64"/>
    </edge>
    <edge id=":bray_16" function="internal">
        <lane id=":bray_16_0" index="0" speed="10.00" length="35.37" shape="2437.19,1650.74 2441.51,1656.46 2443.93,1663.95 2444.45,1673.18 2443.05,1684.18"/>
    </edge>
    <edge id=":bray_17" function="internal">
        <lane id=":bray_17_0" index="0" speed="10.00" length="34.72" shape="2437.19,1650.74 2441.06,1656.47 2441.75,1663.67 2439.28,1672.32 2433.63,1682.43"/>
    </edge>
    <edge id=":bray_18" function="internal">