<?xml version="1.0" encoding="UTF-8"?>

<!-- generated on 2025-02-19 12:56:21 by Eclipse SUMO netconvert Version 1.18.0
<configuration xmlns:xsi="http://www.w3.org/2001/XMLSchema-instance" xsi:noNamespaceSchemaLocation="http://sumo.dlr.de/xsd/netconvertConfiguration.xsd">

    <input>
        <node-files value="nod.xml"/>
        <edge-files value="edge_xmls/08997.xml"/>
    </input>

    <output>
        <output-file value="networks/08997.net.xml"/>
    </output>

</configuration>
-->

<net version="1.16" junctionCornerDetail="5" limitTurnSpeed="5.50" xmlns:xsi="http://www.w3.org/2001/XMLSchema-instance" xsi:noNamespaceSchemaLocation="http://sumo.dlr.de/xsd/net_file.xsd">

    <location netOffset="-682.00,4368.00" convBoundary="0.00,0.00,2498.00,3881.00" origBoundary="682.00,-4368.00,3180.00,-487.00" projParameter="!"/>

    <edge id=":antrim_0" function="internal">
        <lane id=":antrim_0_0" index="0" speed="10.00" length="50.81" shape="2290.84,3452.07 2288.31,3469.10 2284.05,3482.10 2278.06,3491.05 2270.35,3495.97"/>
    </edge>
    <edge id=":antrim_1" function="internal">
        <lane id=":antrim_1_0" index="0" speed="10.00" length="49.12" shape="2290.84,3452.07 2288.69,3468.79 2284.98,3481.62 2278.99,3489.36 2270.00,3490.86"/>
    </edge>
    <edge id=":antrim_2" function="internal">
        <lane id=":antrim_2_0" index="0" speed="10.00" length="45.03" shape="2290.84,3452.07 2286.60,3462.93 2277.98,3467.31 2267.35,3465.43 2257.13,3457.54"/>
    </edge>
    <edge id=":antrim_3" function="internal">
        <lane id=":antrim_3_0" index="0" speed="10.00" length="40.89" shape="2290.84,3452.07 2286.82,3461.66 2278.68,3465.17 2269.00,3462.89 2260.31,3455.08"/>
    </edge>
    <edge id=":antrim_4" function="internal">
        <lane id=":antrim_4_0" index="0" speed="7.16" length="23.61" shape="2290.84,3452.07 2283.60,3451.26 2279.95,3448.60 2279.89,3444.08 2283.42,3437.71"/>
    </edge>
    <edge id=":antrim_5" function="internal">
        <lane id=":antrim_5_0" index="0" speed="6.91" length="22.00" shape="2285.34,3437.70 2284.34,3429.51 2283.69,3426.78 2283.38,3429.51 2283.42,3437.71"/>
    </edge>
    <edge id=":antrim_6" function="internal">
        <lane id=":antrim_6_0" index="0" speed="10.00" length="63.99" shape="2285.34,3437.70 2286.46,3460.60 2284.34,3477.95 2278.97,3489.73 2270.35,3495.97"/>
    </edge>
    <edge id=":antrim_7" function="internal">
        <lane id=":antrim_7_0" index="0" speed="10.00" length="55.04" shape="2282.12,3437.71 2281.25,3449.86 2278.08,3467.91 2273.90,3484.15 2270.00,3490.86"/>
    </edge>
    <edge id=":antrim_8" function="internal">
        <lane id=":antrim_8_0" index="0" speed="10.00" length="42.92" shape="2282.12,3437.71 2280.63,3450.14 2274.64,3459.29 2266.15,3462.61 2257.13,3457.54"/>
    </edge>
    <edge id=":antrim_9" function="internal">
        <lane id=":antrim_9_0" index="0" speed="9.59" length="37.82" shape="2282.12,3437.71 2280.66,3448.70 2275.16,3456.93 2267.70,3459.88 2260.31,3455.08"/>
    </edge>
    <edge id=":antrim_10" function="internal">
        <lane id=":antrim_10_0" index="0" speed="7.75" length="27.79" shape="2279.75,3438.29 2281.55,3448.40 2282.76,3451.68 2283.39,3448.11 2283.42,3437.71"/>
    </edge>
    <edge id=":antrim_11" function="internal">
        <lane id=":antrim_11_0" index="0" speed="10.00" length="61.86" shape="2279.75,3438.29 2282.17,3461.32 2281.42,3478.61 2277.48,3490.16 2270.35,3495.97"/>
    </edge>
    <edge id=":antrim_12" function="internal">
        <lane id=":antrim_12_0" index="0" speed="10.00" length="54.03" shape="2279.75,3438.29 2279.44,3450.33 2277.11,3468.19 2273.65,3484.25 2270.00,3490.86"/>
    </edge>
    <edge id=":antrim_13" function="internal">
        <lane id=":antrim_13_0" index="0" speed="9.96" length="40.13" shape="2279.75,3438.29 2278.78,3449.94 2273.40,3458.74 2265.53,3462.12 2257.13,3457.54"/>
    </edge>
    <edge id=":antrim_14" function="internal">
        <lane id=":antrim_14_0" index="0" speed="9.15" length="34.97" shape="2279.75,3438.29 2278.78,3448.51 2273.92,3456.35 2267.11,3459.37 2260.31,3455.08"/>
    </edge>
    <edge id=":antrim_15" function="internal">
        <lane id=":antrim_15_0" index="0" speed="7.78" length="26.80" shape="2276.96,3439.27 2279.98,3448.42 2282.06,3451.21 2283.20,3447.64 2283.42,3437.71"/>
    </edge>
    <edge id=":antrim_16" function="internal">
        <lane id=":antrim_16_0" index="0" speed="10.00" length="61.91" shape="2276.96,3439.27 2281.81,3461.46 2282.32,3478.31 2278.50,3489.81 2270.35,3495.97"/>
    </edge>
    <edge id=":antrim_17" function="internal">
        <lane id=":antrim_17_0" index="0" speed="10.00" length="51.39" shape="2273.94,3440.33 2275.05,3451.96 2274.77,3469.16 2273.09,3484.57 2270.00,3490.86"/>
    </edge>
    <edge id=":antrim_18" function="internal">
        <lane id=":antrim_18_0" index="0" speed="8.20" length="27.96" shape="2273.94,3440.33 2272.96,3447.13 2268.30,3454.11 2262.26,3458.51 2257.13,3457.54"/>
    </edge>
    <edge id=":antrim_19" function="internal">
        <lane id=":antrim_19_0" index="0" speed="8.00" length="27.59" shape="2273.94,3440.33 2273.99,3448.45 2270.66,3455.16 2265.57,3458.14 2260.31,3455.08"/>
    </edge>
    <edge id=":antrim_20" function="internal">
        <lane id=":antrim_20_0" index="0" speed="9.57" length="41.11" shape="2272.59,3440.80 2277.62,3454.50 2281.10,3458.55 2283.03,3452.95 2283.42,3437.71"/>
    </edge>
    <edge id=":antrim_21" function="internal">
        <lane id=":antrim_21_0" index="0" speed="10.00" length="59.40" shape="2272.59,3440.80 2278.23,3462.70 2279.73,3479.20 2277.11,3490.29 2270.35,3495.97"/>
    </edge>
    <edge id=":antrim_22" function="internal">
        <lane id=":antrim_22_0" index="0" speed="10.00" length="47.71" shape="2272.59,3440.80 2274.11,3451.84 2274.48,3467.79 2273.40,3481.98 2270.59,3487.71"/>
    </edge>
    <edge id=":antrim_23" function="internal">
        <lane id=":antrim_23_0" index="0" speed="7.95" length="26.51" shape="2272.59,3440.80 2271.82,3447.28 2267.56,3454.05 2261.94,3458.38 2257.13,3457.54"/>
    </edge>
    <edge id=":antrim_24" function="internal">
        <lane id=":antrim_24_0" index="0" speed="7.16" length="21.93" shape="2272.59,3440.80 2271.97,3446.28 2268.50,3452.11 2264.01,3455.86 2260.31,3455.08"/>
    </edge>
    <edge id=":antrim_25" function="internal">
        <lane id=":antrim_25_0" index="0" speed="8.97" length="34.86" shape="2272.20,3440.93 2277.34,3452.00 2280.93,3455.16 2282.96,3450.39 2283.42,3437.71"/>
    </edge>
    <edge id=":antrim_26" function="internal">
        <lane id=":antrim_26_0" index="0" speed="10.00" length="55.70" shape="2272.20,3440.93 2273.99,3452.78 2274.38,3470.91 2273.22,3487.81 2270.35,3495.97"/>
    </edge>
    <edge id=":antrim_27" function="internal">
        <lane id=":antrim_27_0" index="0" speed="10.00" length="46.56" shape="2269.17,3441.99 2271.51,3452.76 2273.07,3468.32 2273.04,3482.15 2270.59,3487.71"/>
    </edge>
    <edge id=":antrim_28" function="internal">
        <lane id=":antrim_28_0" index="0" speed="7.92" length="27.04" shape="2269.17,3441.99 2269.98,3449.88 2267.31,3456.69 2262.56,3460.05 2257.13,3457.54"/>
    </edge>
    <edge id=":antrim_29" function="internal">
        <lane id=":antrim_29_0" index="0" speed="7.24" length="23.08" shape="2269.17,3441.99 2271.86,3448.59 2271.29,3452.96 2267.44,3455.13 2260.31,3455.08"/>
    </edge>
    <edge id=":antrim_30" function="internal">
        <lane id=":antrim_30_0" index="0" speed="10.00" length="49.98" shape="2260.83,3454.72 2271.05,3464.75 2278.22,3465.25 2282.34,3456.24 2283.42,3437.71"/>
    </edge>
    <edge id=":antrim_31" function="internal">
        <lane id=":antrim_31_0" index="0" speed="10.00" length="43.48" shape="2260.83,3454.72 2265.46,3463.83 2269.83,3477.22 2272.08,3489.68 2270.35,3495.97"/>
    </edge>
    <edge id=":antrim_32" function="internal">
        <lane id=":antrim_32_0" index="0" speed="9.83" length="36.36" shape="2260.83,3454.72 2265.74,3463.01 2270.60,3474.36 2273.01,3484.13 2270.59,3487.71"/>
    </edge>
    <edge id=":antrim_33" function="internal">
        <lane id=":antrim_33_0" index="0" speed="4.99" length="10.48" shape="2260.83,3454.72 2258.36,3451.66 2257.45,3450.71 2258.10,3451.84 2260.31,3455.08"/>
    </edge>
    <edge id=":antrim_34" function="internal">
        <lane id=":antrim_34_0" index="0" speed="4.19" length="6.79" shape="2260.83,3454.72 2260.97,3456.81 2260.39,3457.98 2259.11,3458.22 2257.13,3457.54"/>
    </edge>
    <edge id=":antrim_35" function="internal">
        <lane id=":antrim_35_0" index="0" speed="2.94" length="2.18" shape="2257.25,3457.44 2256.67,3456.86 2256.46,3456.68 2256.61,3456.91 2257.13,3457.54"/>
    </edge>
    <edge id=":antrim_36" function="internal">
        <lane id=":antrim_36_0" index="0" speed="7.24" length="23.66" shape="2257.25,3457.44 2263.59,3463.55 2266.21,3465.19 2265.12,3462.37 2260.31,3455.08"/>
    </edge>
    <edge id=":antrim_37" function="internal">
        <lane id=":antrim_37_0" index="0" speed="10.00" length="52.95" shape="2257.25,3457.44 2269.04,3466.54 2277.33,3466.29 2282.12,3456.68 2283.42,3437.71"/>
    </edge>
    <edge id=":antrim_38" function="internal">
        <lane id=":antrim_38_0" index="0" speed="10.00" length="42.03" shape="2257.25,3457.44 2262.78,3465.84 2268.42,3478.31 2271.75,3489.97 2270.35,3495.97"/>
    </edge>
    <edge id=":antrim_39" function="internal">
        <lane id=":antrim_39_0" index="0" speed="9.48" length="35.31" shape="2257.25,3457.44 2263.10,3465.06 2269.30,3475.53 2272.81,3484.52 2270.59,3487.71"/>
    </edge>
    <edge id=":antrim_40" function="internal">
        <lane id=":antrim_40_0" index="0" speed="7.33" length="24.00" shape="2258.95,3465.79 2264.68,3469.85 2266.29,3469.83 2263.77,3465.72 2257.13,3457.54"/>
    </edge>
    <edge id=":antrim_41" function="internal">
        <lane id=":antrim_41_0" index="0" speed="8.23" length="29.78" shape="2258.95,3465.79 2266.38,3470.87 2269.08,3470.78 2267.06,3465.52 2260.31,3455.08"/>
    </edge>
    <edge id=":antrim_42" function="internal">
        <lane id=":antrim_42_0" index="0" speed="10.00" length="52.57" shape="2258.95,3465.79 2270.00,3471.49 2277.76,3468.71 2282.23,3457.45 2283.42,3437.71"/>
    </edge>
    <edge id=":antrim_43" function="internal">
        <lane id=":antrim_43_0" index="0" speed="10.00" length="40.65" shape="2258.95,3465.79 2268.90,3474.42 2275.87,3483.02 2277.22,3490.56 2270.35,3495.97"/>
    </edge>
    <edge id=":antrim_44" function="internal">
        <lane id=":antrim_44_0" index="0" speed="8.26" length="27.90" shape="2258.95,3465.79 2264.66,3471.58 2270.26,3479.24 2273.12,3485.65 2270.59,3487.71"/>
    </edge>
    <edge id=":athlone_0" function="internal">
        <lane id=":athlone_0_0" index="0" speed="5.83" length="14.13" shape="1252.36,1984.91 1252.83,1990.05 1253.56,1991.81 1254.56,1990.19 1255.83,1985.19"/>
    </edge>
    <edge id=":athlone_1" function="internal">
        <lane id=":athlone_1_0" index="0" speed="5.02" length="9.34" shape="1252.36,1984.91 1251.98,1981.57 1251.28,1980.31 1250.26,1981.14 1248.91,1984.05"/>
    </edge>
    <edge id=":athlone_2" function="internal">
        <lane id=":athlone_2_0" index="0" speed="10.00" length="40.04" shape="1252.36,1984.91 1252.06,1975.13 1251.78,1963.00 1251.39,1951.82 1250.74,1944.92"/>
    </edge>
    <edge id=":athlone_3" function="internal">
        <lane id=":athlone_3_0" index="0" speed="10.00" length="40.77" shape="1252.36,1984.91 1253.23,1975.14 1255.77,1963.04 1258.77,1951.95 1261.02,1945.21"/>
    </edge>
    <edge id=":athlone_4" function="internal">
        <lane id=":athlone_4_0" index="0" speed="10.00" length="49.19" shape="1252.36,1984.91 1253.46,1973.94 1257.87,1963.54 1265.59,1953.72 1276.60,1944.48"/>
    </edge>
    <edge id=":athlone_5" function="internal">
        <lane id=":athlone_5_0" index="0" speed="10.00" length="46.14" shape="1255.58,1985.16 1256.62,1973.48 1260.98,1963.65 1268.66,1955.68 1279.65,1949.55"/>
    </edge>
    <edge id=":athlone_6" function="internal">
        <lane id=":athlone_6_0" index="0" speed="10.00" length="44.98" shape="1255.58,1985.16 1256.70,1973.63 1261.33,1964.43 1269.45,1957.57 1281.06,1953.03"/>
    </edge>
    <edge id=":athlone_7" function="internal">
        <lane id=":athlone_7_0" index="0" speed="9.71" length="26.81" shape="1255.58,1985.16 1256.17,1977.80 1258.30,1969.88 1261.56,1963.84 1265.55,1962.10"/>
    </edge>
    <edge id=":athlone_8" function="internal">
        <lane id=":athlone_8_0" index="0" speed="6.76" length="17.72" shape="1255.58,1985.16 1256.76,1980.66 1259.80,1976.09 1263.42,1973.28 1266.30,1974.10"/>
    </edge>
    <edge id=":athlone_9" function="internal">
        <lane id=":athlone_9_0" index="0" speed="6.56" length="16.90" shape="1255.58,1985.16 1256.71,1980.84 1259.63,1976.43 1263.05,1973.72 1265.70,1974.53"/>
    </edge>
    <edge id=":athlone_10" function="internal">
        <lane id=":athlone_10_0" index="0" speed="5.69" length="13.53" shape="1255.58,1985.16 1256.32,1980.98 1258.34,1977.54 1260.68,1976.12 1262.40,1978.00"/>
    </edge>
    <edge id=":athlone_11" function="internal">
        <lane id=":athlone_11_0" index="0" speed="5.16" length="9.71" shape="1259.32,1978.86 1258.64,1977.60 1257.83,1978.23 1256.90,1980.76 1255.83,1985.19"/>
    </edge>
    <edge id=":athlone_12" function="internal">
        <lane id=":athlone_12_0" index="0" speed="7.21" length="19.38" shape="1259.32,1978.86 1257.34,1974.40 1254.94,1973.78 1252.13,1977.00 1248.91,1984.05"/>
    </edge>
    <edge id=":athlone_13" function="internal">
        <lane id=":athlone_13_0" index="0" speed="10.00" length="35.01" shape="1259.32,1978.86 1250.74,1944.92"/>
    </edge>
    <edge id=":athlone_14" function="internal">
        <lane id=":athlone_14_0" index="0" speed="10.00" length="33.84" shape="1259.32,1978.86 1258.74,1972.22 1258.93,1961.95 1259.74,1951.73 1261.02,1945.21"/>
    </edge>
    <edge id=":athlone_15" function="internal">
        <lane id=":athlone_15_0" index="0" speed="10.00" length="41.12" shape="1259.32,1978.86 1258.46,1969.77 1261.06,1961.01 1267.11,1952.58 1276.60,1944.48"/>
    </edge>
    <edge id=":athlone_16" function="internal">
        <lane id=":athlone_16_0" index="0" speed="10.00" length="39.44" shape="1259.32,1978.86 1258.62,1969.98 1261.78,1962.13 1268.79,1955.32 1279.65,1949.55"/>
    </edge>
    <edge id=":athlone_17" function="internal">
        <lane id=":athlone_17_0" index="0" speed="10.00" length="35.38" shape="1259.32,1978.86 1260.62,1971.96 1266.17,1963.95 1273.73,1956.93 1281.06,1953.03"/>
    </edge>
    <edge id=":athlone_18" function="internal">
        <lane id=":athlone_18_0" index="0" speed="7.98" length="20.05" shape="1259.32,1978.86 1258.81,1973.59 1259.69,1967.70 1261.94,1963.21 1265.55,1962.10"/>
    </edge>
    <edge id=":athlone_19" function="internal">
        <lane id=":athlone_19_0" index="0" speed="5.05" length="9.91" shape="1259.32,1978.86 1259.88,1976.64 1261.96,1974.57 1264.46,1973.46 1266.30,1974.10"/>
    </edge>
    <edge id=":athlone_20" function="internal">
        <lane id=":athlone_20_0" index="0" speed="4.84" length="9.06" shape="1259.32,1978.86 1259.84,1976.83 1261.77,1974.93 1264.06,1973.92 1265.70,1974.53"/>
    </edge>
    <edge id=":athlone_21" function="internal">
        <lane id=":athlone_21_0" index="0" speed="3.65" length="4.67" shape="1259.32,1978.86 1259.77,1977.49 1260.43,1976.89 1261.31,1977.06 1262.40,1978.00"/>
    </edge>
    <edge id=":athlone_22" function="internal">
        <lane id=":athlone_22_0" index="0" speed="4.97" length="8.97" shape="1258.90,1978.98 1258.34,1977.94 1257.65,1978.63 1256.81,1981.04 1255.83,1985.19"/>
    </edge>
    <edge id=":athlone_23" function="internal">
        <lane id=":athlone_23_0" index="0" speed="7.11" length="19.00" shape="1258.90,1978.98 1257.07,1974.54 1254.80,1973.91 1252.08,1977.08 1248.91,1984.05"/>
    </edge>
    <edge id=":athlone_24" function="internal">
        <lane id=":athlone_24_0" index="0" speed="10.00" length="35.03" shape="1258.90,1978.98 1250.74,1944.92"/>
    </edge>
    <edge id=":athlone_25" function="internal">
        <lane id=":athlone_25_0" index="0" speed="10.00" length="33.97" shape="1258.90,1978.98 1258.43,1972.30 1258.76,1962.00 1259.69,1951.74 1261.02,1945.21"/>
    </edge>
    <edge id=":athlone_26" function="internal">
        <lane id=":athlone_26_0" index="0" speed="10.00" length="41.32" shape="1258.90,1978.98 1258.23,1969.83 1260.96,1961.03 1267.09,1952.58 1276.60,1944.48"/>
    </edge>
    <edge id=":athlone_27" function="internal">
        <lane id=":athlone_27_0" index="0" speed="10.00" length="39.65" shape="1258.90,1978.98 1258.40,1970.04 1261.69,1962.16 1268.78,1955.33 1279.65,1949.55"/>
    </edge>
    <edge id=":athlone_28" function="internal">
        <lane id=":athlone_28_0" index="0" speed="10.00" length="35.68" shape="1258.90,1978.98 1260.35,1972.08 1266.04,1964.02 1273.69,1956.95 1281.06,1953.03"/>
    </edge>
    <edge id=":athlone_29" function="internal">
        <lane id=":athlone_29_0" index="0" speed="8.07" length="20.32" shape="1258.90,1978.98 1258.49,1973.63 1259.49,1967.71 1261.85,1963.20 1265.55,1962.10"/>
    </edge>
    <edge id=":athlone_30" function="internal">
        <lane id=":athlone_30_0" index="0" speed="5.17" length="10.39" shape="1258.90,1978.98 1259.52,1976.66 1261.73,1974.53 1264.37,1973.41 1266.30,1974.10"/>
    </edge>
    <edge id=":athlone_31" function="internal">
        <lane id=":athlone_31_0" index="0" speed="3.38" length="3.64" shape="1258.90,1978.98 1262.40,1978.00"/>
    </edge>
    <edge id=":athlone_32" function="internal">
        <lane id=":athlone_32_0" index="0" speed="5.43" length="11.88" shape="1258.90,1978.98 1258.93,1975.31 1260.07,1973.35 1262.33,1973.09 1265.70,1974.53"/>
    </edge>
    <edge id=":athlone_33" function="internal">
        <lane id=":athlone_33_0" index="0" speed="3.52" length="3.97" shape="1265.81,1974.45 1266.81,1975.53 1267.23,1975.83 1267.06,1975.35 1266.30,1974.10"/>
    </edge>
    <edge id=":athlone_34" function="internal">
        <lane id=":athlone_34_0" index="0" speed="8.40" length="32.25" shape="1265.81,1974.45 1273.99,1983.08 1277.57,1985.34 1276.54,1981.23 1270.92,1970.76"/>
    </edge>
    <edge id=":athlone_35" function="internal">
        <lane id=":athlone_35_0" index="0" speed="5.51" length="11.44" shape="1265.81,1974.45 1263.19,1971.97 1261.75,1971.74 1261.49,1973.75 1262.40,1978.00"/>
    </edge>
    <edge id=":athlone_36" function="internal">
        <lane id=":athlone_36_0" index="0" speed="7.60" length="18.88" shape="1265.81,1974.45 1262.84,1972.49 1260.19,1973.62 1257.85,1977.85 1255.83,1985.19"/>
    </edge>
    <edge id=":athlone_37" function="internal">
        <lane id=":athlone_37_0" index="0" speed="9.00" length="24.93" shape="1265.81,1974.45 1261.28,1971.15 1256.96,1971.64 1252.83,1975.95 1248.91,1984.05"/>
    </edge>
    <edge id=":athlone_38" function="internal">
        <lane id=":athlone_38_0" index="0" speed="10.00" length="33.24" shape="1265.81,1974.45 1262.21,1968.95 1257.44,1960.11 1253.09,1951.06 1250.74,1944.92"/>
    </edge>
    <edge id=":athlone_39" function="internal">
        <lane id=":athlone_39_0" index="0" speed="10.00" length="31.41" shape="1265.81,1974.45 1261.13,1967.70 1258.77,1960.57 1258.74,1953.07 1261.02,1945.21"/>
    </edge>
    <edge id=":athlone_40" function="internal">
        <lane id=":athlone_40_0" index="0" speed="10.00" length="33.66" shape="1265.81,1974.45 1264.32,1968.07 1266.57,1959.24 1271.14,1950.52 1276.60,1944.48"/>
    </edge>
    <edge id=":athlone_41" function="internal">
        <lane id=":athlone_41_0" index="0" speed="10.00" length="31.20" shape="1265.81,1974.45 1264.35,1968.26 1267.45,1960.80 1273.20,1953.94 1279.65,1949.55"/>
    </edge>
    <edge id=":athlone_42" function="internal">
        <lane id=":athlone_42_0" index="0" speed="9.74" length="29.40" shape="1265.81,1974.45 1264.54,1968.64 1268.06,1962.09 1274.27,1956.36 1281.06,1953.03"/>
    </edge>
    <edge id=":athlone_43" function="internal">
        <lane id=":athlone_43_0" index="0" speed="6.16" length="14.13" shape="1265.81,1974.45 1264.06,1971.06 1263.17,1966.69 1263.54,1963.11 1265.55,1962.10"/>
    </edge>
    <edge id=":athlone_44" function="internal">
        <lane id=":athlone_44_0" index="0" speed="5.48" length="12.35" shape="1278.26,1947.23 1274.68,1949.97 1273.71,1951.27 1275.37,1951.13 1279.65,1949.55"/>
    </edge>
    <edge id=":athlone_45" function="internal">
        <lane id=":athlone_45_0" index="0" speed="6.74" length="18.76" shape="1278.26,1947.23 1273.06,1951.39 1271.80,1953.74 1274.46,1954.29 1281.06,1953.03"/>
    </edge>
    <edge id=":athlone_46" function="internal">
        <lane id=":athlone_46_0" index="0" speed="8.04" length="21.74" shape="1278.26,1947.23 1270.48,1953.09 1265.77,1957.53 1264.13,1960.53 1265.55,1962.10"/>
    </edge>
    <edge id=":athlone_47" function="internal">
        <lane id=":athlone_47_0" index="0" speed="10.00" length="32.71" shape="1278.26,1947.23 1269.98,1954.23 1265.23,1961.04 1264.00,1967.67 1266.30,1974.10"/>
    </edge>
    <edge id=":athlone_48" function="internal">
        <lane id=":athlone_48_0" index="0" speed="10.00" length="27.52" shape="1278.26,1947.23 1272.21,1952.65 1268.98,1958.37 1268.54,1964.41 1270.92,1970.76"/>
    </edge>
    <edge id=":athlone_49" function="internal">
        <lane id=":athlone_49_0" index="0" speed="10.00" length="36.97" shape="1278.26,1947.23 1269.61,1954.56 1264.09,1962.14 1261.68,1969.95 1262.40,1978.00"/>
    </edge>
    <edge id=":athlone_50" function="internal">
        <lane id=":athlone_50_0" index="0" speed="10.00" length="44.35" shape="1278.26,1947.23 1273.32,1953.00 1266.28,1963.62 1259.63,1975.53 1255.83,1985.19"/>
    </edge>
    <edge id=":athlone_51" function="internal">
        <lane id=":athlone_51_0" index="0" speed="10.00" length="47.17" shape="1278.26,1947.23 1272.20,1953.55 1262.72,1964.97 1253.67,1976.74 1248.91,1984.05"/>
    </edge>
    <edge id=":athlone_52" function="internal">
        <lane id=":athlone_52_0" index="0" speed="10.00" length="34.61" shape="1278.26,1947.23 1269.15,1952.71 1261.06,1955.01 1254.70,1952.84 1250.74,1944.92"/>
    </edge>
    <edge id=":athlone_53" function="internal">
        <lane id=":athlone_53_0" index="0" speed="7.16" length="19.87" shape="1278.26,1947.23 1273.25,1949.07 1267.02,1949.47 1262.09,1948.24 1261.02,1945.21"/>
    </edge>
    <edge id=":athlone_54" function="internal">
        <lane id=":athlone_54_0" index="0" speed="3.65" length="4.69" shape="1278.26,1947.23 1276.81,1947.17 1276.06,1946.68 1275.99,1945.79 1276.60,1944.48"/>
    </edge>
    <edge id=":athlone_55" function="internal">
        <lane id=":athlone_55_0" index="0" speed="7.04" length="19.11" shape="1264.02,1946.33 1263.19,1950.00 1265.01,1950.92 1269.48,1949.08 1276.60,1944.48"/>
    </edge>
    <edge id=":athlone_56" function="internal">
        <lane id=":athlone_56_0" index="0" speed="7.95" length="22.52" shape="1264.02,1946.33 1263.12,1950.92 1265.42,1952.99 1270.94,1952.53 1279.65,1949.55"/>
    </edge>
    <edge id=":athlone_57" function="internal">
        <lane id=":athlone_57_0" index="0" speed="8.55" length="24.49" shape="1264.02,1946.33 1263.11,1951.37 1265.64,1954.17 1271.63,1954.72 1281.06,1953.03"/>
    </edge>
    <edge id=":athlone_58" function="internal">
        <lane id=":athlone_58_0" index="0" speed="8.56" length="17.94" shape="1264.02,1946.33 1261.93,1952.43 1261.49,1957.09 1262.69,1960.31 1265.55,1962.10"/>
    </edge>
    <edge id=":athlone_59" function="internal">
        <lane id=":athlone_59_0" index="0" speed="10.00" length="29.04" shape="1264.02,1946.33 1261.83,1953.51 1261.48,1960.53 1262.97,1967.39 1266.30,1974.10"/>
    </edge>
    <edge id=":athlone_60" function="internal">
        <lane id=":athlone_60_0" index="0" speed="10.00" length="26.06" shape="1264.02,1946.33 1263.29,1950.57 1264.20,1956.05 1266.74,1962.78 1270.92,1970.76"/>
    </edge>
    <edge id=":athlone_61" function="internal">
        <lane id=":athlone_61_0" index="0" speed="10.00" length="31.86" shape="1264.02,1946.33 1262.75,1952.54 1261.97,1962.08 1261.81,1971.67 1262.40,1978.00"/>
    </edge>
    <edge id=":athlone_62" function="internal">
        <lane id=":athlone_62_0" index="0" speed="10.00" length="40.27" shape="1264.02,1946.33 1261.70,1952.92 1258.35,1963.68 1254.99,1975.42 1252.62,1984.93"/>
    </edge>
    <edge id=":athlone_63" function="internal">
        <lane id=":athlone_63_0" index="0" speed="10.00" length="40.64" shape="1264.02,1946.33 1248.91,1984.05"/>
    </edge>
    <edge id=":athlone_64" function="internal">
        <lane id=":athlone_64_0" index="0" speed="6.95" length="17.97" shape="1264.02,1946.33 1260.94,1950.01 1256.90,1950.90 1253.09,1949.15 1250.74,1944.92"/>
    </edge>
    <edge id=":athlone_65" function="internal">
        <lane id=":athlone_65_0" index="0" speed="3.65" length="4.68" shape="1264.02,1946.33 1262.85,1947.17 1261.96,1947.27 1261.35,1946.61 1261.02,1945.21"/>
    </edge>
    <edge id=":athlone_66" function="internal">
        <lane id=":athlone_66_0" index="0" speed="9.64" length="45.48" shape="1263.22,1946.03 1268.97,1930.01 1270.52,1924.53 1267.87,1929.60 1261.02,1945.21"/>
    </edge>
    <edge id=":athlone_67" function="internal">
        <lane id=":athlone_67_0" index="0" speed="7.25" length="19.96" shape="1263.22,1946.03 1262.58,1949.94 1264.60,1950.99 1269.27,1949.17 1276.60,1944.48"/>
    </edge>
    <edge id=":athlone_68" function="internal">
        <lane id=":athlone_68_0" index="0" speed="8.16" length="23.20" shape="1263.22,1946.03 1262.57,1950.79 1265.10,1952.96 1270.79,1952.55 1279.65,1949.55"/>
    </edge>
    <edge id=":athlone_69" function="internal">
        <lane id=":athlone_69_0" index="0" speed="8.76" length="25.12" shape="1263.22,1946.03 1262.58,1951.22 1265.34,1954.12 1271.50,1954.72 1281.06,1953.03"/>
    </edge>
    <edge id=":athlone_70" function="internal">
        <lane id=":athlone_70_0" index="0" speed="8.78" length="18.24" shape="1263.22,1946.03 1261.44,1952.25 1261.24,1957.00 1262.61,1960.28 1265.55,1962.10"/>
    </edge>
    <edge id=":athlone_71" function="internal">
        <lane id=":athlone_71_0" index="0" speed="10.00" length="29.30" shape="1263.22,1946.03 1261.37,1953.33 1261.27,1960.44 1262.91,1967.36 1266.30,1974.10"/>
    </edge>
    <edge id=":athlone_72" function="internal">
        <lane id=":athlone_72_0" index="0" speed="10.00" length="27.93" shape="1263.22,1946.03 1262.03,1951.79 1262.48,1958.14 1264.58,1965.09 1268.31,1972.64"/>
    </edge>
    <edge id=":athlone_73" function="internal">
        <lane id=":athlone_73_0" index="0" speed="10.00" length="32.11" shape="1263.22,1946.03 1262.17,1952.33 1261.66,1961.97 1261.72,1971.63 1262.40,1978.00"/>
    </edge>
    <edge id=":athlone_74" function="internal">
        <lane id=":athlone_74_0" index="0" speed="10.00" length="40.33" shape="1263.22,1946.03 1261.12,1952.71 1258.04,1963.57 1254.90,1975.38 1252.62,1984.93"/>
    </edge>
    <edge id=":athlone_75" function="internal">
        <lane id=":athlone_75_0" index="0" speed="10.00" length="40.63" shape="1263.22,1946.03 1248.91,1984.05"/>
    </edge>
    <edge id=":athlone_76" function="internal">
        <lane id=":athlone_76_0" index="0" speed="6.25" length="14.51" shape="1263.22,1946.03 1260.79,1948.08 1256.78,1948.47 1252.88,1947.36 1250.74,1944.92"/>
    </edge>
    <edge id=":athlone_77" function="internal">
        <lane id=":athlone_77_0" index="0" speed="4.44" length="7.14" shape="1259.27,1943.63 1259.11,1946.47 1259.36,1947.68 1259.99,1947.26 1261.02,1945.21"/>
    </edge>
    <edge id=":athlone_78" function="internal">
        <lane id=":athlone_78_0" index="0" speed="8.39" length="24.22" shape="1259.27,1943.63 1259.85,1948.95 1262.93,1950.87 1268.51,1949.38 1276.60,1944.48"/>
    </edge>
    <edge id=":athlone_79" function="internal">
        <lane id=":athlone_79_0" index="0" speed="9.36" length="27.17" shape="1259.27,1943.63 1260.01,1949.58 1263.65,1952.55 1270.20,1952.54 1279.65,1949.55"/>
    </edge>
    <edge id=":athlone_80" function="internal">
        <lane id=":athlone_80_0" index="0" speed="10.00" length="29.00" shape="1259.27,1943.63 1260.08,1949.94 1263.99,1953.61 1270.98,1954.64 1281.06,1953.03"/>
    </edge>
    <edge id=":athlone_81" function="internal">
        <lane id=":athlone_81_0" index="0" speed="10.00" length="21.02" shape="1259.27,1943.63 1259.08,1950.86 1260.06,1956.35 1262.22,1960.09 1265.55,1962.10"/>
    </edge>
    <edge id=":athlone_82" function="internal">
        <lane id=":athlone_82_0" index="0" speed="10.00" length="31.42" shape="1259.27,1943.63 1259.79,1949.89 1261.59,1959.15 1264.00,1968.26 1266.30,1974.10"/>
    </edge>
    <edge id=":athlone_83" function="internal">
        <lane id=":athlone_83_0" index="0" speed="10.00" length="30.75" shape="1259.27,1943.63 1259.42,1948.44 1260.79,1955.14 1263.65,1963.34 1268.31,1972.64"/>
    </edge>
    <edge id=":athlone_84" function="internal">
        <lane id=":athlone_84_0" index="0" speed="10.00" length="34.56" shape="1259.27,1943.63 1259.37,1950.42 1260.15,1960.87 1261.28,1971.30 1262.40,1978.00"/>
    </edge>
    <edge id=":athlone_85" function="internal">
        <lane id=":athlone_85_0" index="0" speed="10.00" length="41.78" shape="1259.27,1943.63 1258.82,1950.84 1258.14,1962.60 1257.17,1975.26 1255.83,1985.19"/>
        <lane id=":athlone_85_1" index="1" speed="10.00" length="41.78" shape="1259.27,1943.63 1258.32,1950.80 1256.53,1962.47 1254.45,1975.05 1252.62,1984.93"/>
    </edge>
    <edge id=":athlone_87" function="internal">
        <lane id=":athlone_87_0" index="0" speed="10.00" length="41.75" shape="1259.27,1943.63 1257.70,1951.39 1254.58,1963.95 1251.21,1976.47 1248.91,1984.05"/>
    </edge>
    <edge id=":athlone_88" function="internal">