<?xml version="1.0" encoding="UTF-8"?>

<!-- generated on 2025-02-19 12:59:06 by Eclipse SUMO netconvert Version 1.18.0
<configuration xmlns:xsi="http://www.w3.org/2001/XMLSchema-instance" xsi:noNamespaceSchemaLocation="http://sumo.dlr.de/xsd/netconvertConfiguration.xsd">

    <input>
        <node-files value="nod.xml"/>
        <edge-files value="edge_xmls/09280.xml"/>
    </input>

    <output>
        <output-file value="networks/09280.net.xml"/>
    </output>

</configuration>
-->

<net version="1.16" junctionCornerDetail="5" limitTurnSpeed="5.50" xmlns:xsi="http://www.w3.org/2001/XMLSchema-instance" xsi:noNamespaceSchemaLocation="http://sumo.dlr.de/xsd/net_file.xsd">

    <location netOffset="-682.00,4368.00" convBoundary="0.00,0.00,2498.00,3881.00" origBoundary="682.00,-4368.00,3180.00,-487.00" projParameter="!"/>

    <edge id=":antrim_0" function="internal">
        <lane id=":antrim_0_0" index="0" speed="10.00" length="12.00" shape="2293.64,3486.22 2283.34,3492.39"/>
    </edge>
    <edge id=":antrim_1" function="internal">
        <lane id=":antrim_1_0" index="0" speed="10.00" length="32.86" shape="2293.64,3486.22 2289.42,3484.43 2283.26,3477.80 2277.12,3469.23 2272.95,3461.62"/>
    </edge>
    <edge id=":antrim_2" function="internal">
        <lane id=":antrim_2_0" index="0" speed="10.00" length="32.58" shape="2293.64,3486.22 2289.71,3484.21 2284.41,3477.00 2279.33,3467.78 2276.08,3459.72"/>
    </edge>
    <edge id=":antrim_3" function="internal">
        <lane id=":antrim_3_0" index="0" speed="10.00" length="42.90" shape="2293.64,3486.22 2288.70,3485.38 2284.95,3477.45 2282.15,3464.55 2280.09,3448.77"/>
    </edge>
    <edge id=":antrim_4" function="internal">
        <lane id=":antrim_4_0" index="0" speed="10.00" length="59.90" shape="2293.64,3486.22 2288.88,3483.85 2285.81,3471.69 2284.07,3452.68 2283.27,3429.75"/>
    </edge>
    <edge id=":antrim_5" function="internal">
        <lane id=":antrim_5_0" index="0" speed="10.00" length="63.75" shape="2292.81,3429.60 2290.23,3456.16 2287.80,3475.48 2285.50,3487.56 2283.34,3492.39"/>
    </edge>
    <edge id=":antrim_6" function="internal">
        <lane id=":antrim_6_0" index="0" speed="9.80" length="39.99" shape="2292.81,3429.60 2289.85,3439.49 2283.86,3452.01 2277.38,3461.33 2272.95,3461.62"/>
    </edge>
    <edge id=":antrim_7" function="internal">
        <lane id=":antrim_7_0" index="0" speed="9.20" length="36.77" shape="2292.81,3429.60 2290.20,3439.24 2285.06,3451.19 2279.60,3459.86 2276.08,3459.72"/>
    </edge>
    <edge id=":antrim_8" function="internal">
        <lane id=":antrim_8_0" index="0" speed="8.22" length="30.87" shape="2292.81,3429.60 2290.54,3439.76 2286.54,3448.73 2282.49,3452.93 2280.09,3448.77"/>
    </edge>
    <edge id=":antrim_9" function="internal">
        <lane id=":antrim_9_0" index="0" speed="5.57" length="13.43" shape="2292.81,3429.60 2291.13,3432.60 2287.90,3433.64 2284.73,3432.70 2283.27,3429.75"/>
    </edge>
    <edge id=":antrim_10" function="internal">
        <lane id=":antrim_10_0" index="0" speed="10.00" length="63.80" shape="2289.67,3429.65 2289.69,3455.48 2288.64,3474.55 2286.53,3486.85 2283.34,3492.39"/>
    </edge>
    <edge id=":antrim_11" function="internal">
        <lane id=":antrim_11_0" index="0" speed="9.25" length="36.98" shape="2286.47,3429.70 2284.90,3439.59 2281.04,3452.07 2276.52,3461.35 2272.95,3461.62"/>
    </edge>
    <edge id=":antrim_12" function="internal">
        <lane id=":antrim_12_0" index="0" speed="8.70" length="33.99" shape="2286.47,3429.70 2285.25,3439.34 2282.24,3451.25 2278.75,3459.88 2276.08,3459.72"/>
    </edge>
    <edge id=":antrim_13" function="internal">
        <lane id=":antrim_13_0" index="0" speed="7.55" length="26.72" shape="2286.47,3429.70 2285.73,3438.96 2283.80,3447.59 2281.61,3452.05 2280.09,3448.77"/>
    </edge>
    <edge id=":antrim_14" function="internal">
        <lane id=":antrim_14_0" index="0" speed="3.65" length="4.67" shape="2286.47,3429.70 2285.68,3430.91 2284.89,3431.32 2284.09,3430.94 2283.27,3429.75"/>
    </edge>
    <edge id=":antrim_15" function="internal">
        <lane id=":antrim_15_0" index="0" speed="10.00" length="63.66" shape="2287.97,3429.68 2288.73,3455.50 2288.21,3474.56 2286.42,3486.86 2283.34,3492.39"/>
    </edge>
    <edge id=":antrim_16" function="internal">
        <lane id=":antrim_16_0" index="0" speed="9.12" length="36.30" shape="2284.77,3429.73 2283.58,3439.61 2280.29,3452.08 2276.29,3461.35 2272.95,3461.62"/>
    </edge>
    <edge id=":antrim_17" function="internal">
        <lane id=":antrim_17_0" index="0" speed="8.58" length="33.39" shape="2284.77,3429.73 2283.93,3439.36 2281.49,3451.26 2278.52,3459.89 2276.08,3459.72"/>
    </edge>
    <edge id=":antrim_18" function="internal">
        <lane id=":antrim_18_0" index="0" speed="10.00" length="52.74" shape="2284.77,3429.73 2283.74,3409.98 2283.14,3403.40 2282.98,3409.99 2283.27,3429.75"/>
    </edge>
    <edge id=":antrim_19" function="internal">
        <lane id=":antrim_19_0" index="0" speed="7.76" length="28.65" shape="2284.77,3429.73 2290.74,3436.24 2291.95,3441.59 2288.40,3445.77 2280.09,3448.77"/>
    </edge>
    <edge id=":antrim_20" function="internal">
        <lane id=":antrim_20_0" index="0" speed="3.39" length="3.58" shape="2275.72,3459.94 2276.24,3461.14 2276.48,3461.50 2276.42,3461.03 2276.08,3459.72"/>
    </edge>
    <edge id=":antrim_21" function="internal">
        <lane id=":antrim_21_0" index="0" speed="7.73" length="26.12" shape="2275.72,3459.94 2278.81,3466.05 2280.56,3466.23 2280.99,3460.47 2280.09,3448.77"/>
    </edge>
    <edge id=":antrim_22" function="internal">
        <lane id=":antrim_22_0" index="0" speed="10.00" length="43.87" shape="2275.72,3459.94 2279.38,3465.78 2281.86,3462.70 2283.16,3450.69 2283.27,3429.75"/>
    </edge>
    <edge id=":antrim_23" function="internal">
        <lane id=":antrim_23_0" index="0" speed="10.00" length="33.53" shape="2275.72,3459.94 2278.60,3468.32 2281.50,3478.84 2283.42,3488.02 2283.34,3492.39"/>
    </edge>
    <edge id=":antrim_24" function="internal">
        <lane id=":antrim_24_0" index="0" speed="3.66" length="4.73" shape="2275.72,3459.94 2275.66,3461.39 2275.17,3462.16 2274.27,3462.24 2272.95,3461.62"/>
    </edge>
    <edge id=":antrim_25" function="internal">
        <lane id=":antrim_25_0" index="0" speed="4.90" length="9.72" shape="2271.68,3462.39 2273.62,3465.40 2274.48,3466.27 2274.25,3465.01 2272.95,3461.62"/>
    </edge>
    <edge id=":antrim_26" function="internal">
        <lane id=":antrim_26_0" index="0" speed="6.75" length="19.54" shape="2271.68,3462.39 2275.56,3468.14 2277.58,3469.61 2277.76,3466.81 2276.08,3459.72"/>
    </edge>
    <edge id=":antrim_27" function="internal">
        <lane id=":antrim_27_0" index="0" speed="8.68" length="31.47" shape="2271.68,3462.39 2276.69,3468.91 2279.77,3468.82 2280.90,3462.11 2280.09,3448.77"/>
    </edge>
    <edge id=":antrim_28" function="internal">
        <lane id=":antrim_28_0" index="0" speed="10.00" length="48.06" shape="2271.68,3462.39 2277.13,3468.12 2280.88,3464.59 2282.92,3451.80 2283.27,3429.75"/>
    </edge>
    <edge id=":antrim_29" function="internal">
        <lane id=":antrim_29_0" index="0" speed="10.00" length="32.44" shape="2271.68,3462.39 2275.73,3470.12 2280.00,3479.80 2283.02,3488.28 2283.34,3492.39"/>
    </edge>
    <edge id=":antrim_30" function="internal">
        <lane id=":antrim_30_0" index="0" speed="6.74" length="19.40" shape="2268.65,3464.49 2273.23,3469.76 2275.47,3471.03 2275.38,3468.32 2272.95,3461.62"/>
    </edge>
    <edge id=":antrim_31" function="internal">
        <lane id=":antrim_31_0" index="0" speed="7.60" length="24.11" shape="2268.65,3464.49 2274.23,3470.66 2277.33,3471.92 2277.94,3468.27 2276.08,3459.72"/>
    </edge>
    <edge id=":antrim_32" function="internal">
        <lane id=":antrim_32_0" index="0" speed="9.30" length="34.58" shape="2268.65,3464.49 2275.06,3470.70 2279.09,3470.15 2280.77,3462.84 2280.09,3448.77"/>
    </edge>
    <edge id=":antrim_33" function="internal">
        <lane id=":antrim_33_0" index="0" speed="10.00" length="50.99" shape="2268.65,3464.49 2275.44,3469.74 2280.13,3465.70 2282.74,3452.37 2283.27,3429.75"/>
    </edge>
    <edge id=":antrim_34" function="internal">
        <lane id=":antrim_34_0" index="0" speed="10.00" length="32.78" shape="2268.65,3464.49 2276.13,3474.30 2281.65,3482.68 2284.35,3488.93 2283.34,3492.39"/>
    </edge>
    <edge id=":antrim_35" function="internal">
        <lane id=":antrim_35_0" index="0" speed="7.47" length="23.05" shape="2267.25,3468.72 2272.99,3473.46 2275.85,3473.85 2275.84,3469.91 2272.95,3461.62"/>
    </edge>
    <edge id=":antrim_36" function="internal">
        <lane id=":antrim_36_0" index="0" speed="8.12" length="26.33" shape="2267.25,3468.72 2273.66,3473.80 2277.26,3473.99 2278.07,3469.29 2276.08,3459.72"/>
    </edge>
    <edge id=":antrim_37" function="internal">
        <lane id=":antrim_37_0" index="0" speed="9.83" length="36.58" shape="2267.25,3468.72 2274.31,3473.50 2278.80,3471.77 2280.73,3463.53 2280.09,3448.77"/>
    </edge>
    <edge id=":antrim_38" function="internal">
        <lane id=":antrim_38_0" index="0" speed="10.00" length="53.38" shape="2267.25,3468.72 2274.66,3472.45 2279.79,3467.20 2282.66,3452.97 2283.27,3429.75"/>
    </edge>
    <edge id=":antrim_39" function="internal">
        <lane id=":antrim_39_0" index="0" speed="10.00" length="30.14" shape="2267.25,3468.72 2275.22,3476.71 2281.25,3483.73 2284.30,3489.16 2283.34,3492.39"/>
    </edge>
    <edge id=":athlone_0" function="internal">
        <lane id=":athlone_0_0" index="0" speed="10.00" length="48.09" shape="1256.92,2012.67 1255.51,1991.36 1253.68,1976.56 1251.43,1968.26 1248.75,1966.47"/>
    </edge>
    <edge id=":athlone_1" function="internal">
        <lane id=":athlone_1_0" index="0" speed="3.65" length="4.67" shape="1256.92,2012.67 1257.66,2011.44 1258.44,2011.00 1259.26,2011.36 1260.12,2012.52"/>
    </edge>
    <edge id=":athlone_2" function="internal">
        <lane id=":athlone_2_0" index="0" speed="7.79" length="28.10" shape="1263.82,2012.09 1261.69,2001.85 1260.36,1998.51 1259.84,2002.07 1260.12,2012.52"/>
    </edge>
    <edge id=":athlone_3" function="internal">
        <lane id=":athlone_3_0" index="0" speed="10.00" length="49.27" shape="1263.82,2012.09 1259.50,1990.98 1255.55,1976.34 1251.97,1968.17 1248.75,1966.47"/>
    </edge>
    <edge id=":athlone_4" function="internal">
        <lane id=":athlone_4_0" index="0" speed="10.00" length="41.34" shape="1261.19,1972.05 1259.88,1972.65 1259.27,1979.60 1259.35,1992.89 1260.12,2012.52"/>
    </edge>
    <edge id=":athlone_5" function="internal">
        <lane id=":athlone_5_0" index="0" speed="8.56" length="15.11" shape="1261.19,1972.05 1258.25,1968.34 1255.20,1966.17 1252.04,1965.55 1248.75,1966.47"/>
    </edge>
    <edge id=":athlone_6" function="internal">
        <lane id=":athlone_6_0" index="0" speed="10.00" length="46.04" shape="1265.52,1969.37 1262.27,1970.10 1260.29,1977.53 1259.57,1991.67 1260.12,2012.52"/>
    </edge>
    <edge id=":athlone_7" function="internal">
        <lane id=":athlone_7_0" index="0" speed="10.00" length="17.85" shape="1265.52,1969.37 1260.86,1966.75 1256.51,1965.39 1252.48,1965.30 1248.75,1966.47"/>
    </edge>
    <edge id=":athlone_8" function="internal">
        <lane id=":athlone_8_0" index="0" speed="10.00" length="51.02" shape="1266.60,1963.28 1262.90,1967.19 1260.59,1976.69 1259.66,1991.81 1260.12,2012.52"/>
    </edge>
    <edge id=":athlone_9" function="internal">
        <lane id=":athlone_9_0" index="0" speed="10.00" length="18.23" shape="1265.81,1960.18 1260.06,1961.78 1255.65,1963.31 1252.06,1964.85 1248.75,1966.47"/>
    </edge>
    <edge id=":athlone_10" function="internal">
        <lane id=":athlone_10_0" index="0" speed="10.00" length="56.81" shape="1259.64,1955.75 1258.95,1965.89 1259.14,1984.02 1259.70,2002.20 1260.12,2012.52"/>
    </edge>
    <edge id=":athlone_11" function="internal">
        <lane id=":athlone_11_0" index="0" speed="10.00" length="15.60" shape="1259.64,1955.75 1257.84,1959.08 1255.22,1962.02 1252.09,1964.50 1248.75,1966.47"/>
    </edge>
    <edge id=":belfast_0" function="internal">
        <lane id=":belfast_0_0" index="0" speed="7.91" length="28.80" shape="2486.53,3312.58 2489.64,3322.77 2491.40,3326.00 2491.81,3322.28 2490.87,3311.60"/>
    </edge>
    <edge id=":belfast_1" function="internal">
        <lane id=":belfast_1_0" index="0" speed="10.00" length="54.10" shape="2486.53,3312.58 2491.90,3333.93 2494.69,3349.82 2494.88,3360.25 2492.49,3365.22"/>
    </edge>
    <edge id=":belfast_2" function="internal">
        <lane id=":belfast_2_0" index="0" speed="10.00" length="47.87" shape="2486.53,3312.58 2490.13,3328.16 2491.59,3342.51 2489.06,3350.87 2480.66,3348.49"/>
    </edge>
    <edge id=":belfast_3" function="internal">
        <lane id=":belfast_3_0" index="0" speed="9.33" length="36.57" shape="2486.53,3312.58 2488.11,3324.32 2486.90,3335.06 2483.06,3340.92 2476.78,3338.03"/>
    </edge>
    <edge id=":belfast_4" function="internal">
        <lane id=":belfast_4_0" index="0" speed="7.42" length="25.49" shape="2486.53,3312.58 2488.02,3321.28 2488.21,3329.67 2487.13,3334.28 2484.76,3331.66"/>
    </edge>
    <edge id=":belfast_5" function="internal">
        <lane id=":belfast_5_0" index="0" speed="7.42" length="25.44" shape="2486.53,3312.58 2488.02,3321.27 2488.22,3329.64 2487.15,3334.25 2484.79,3331.63"/>
    </edge>
    <edge id=":belfast_6" function="internal">
        <lane id=":belfast_6_0" index="0" speed="3.65" length="4.68" shape="2486.53,3312.58 2486.04,3313.94 2485.36,3314.52 2484.48,3314.32 2483.42,3313.34"/>
    </edge>
    <edge id=":belfast_7" function="internal">
        <lane id=":belfast_7_0" index="0" speed="3.53" length="4.10" shape="2483.14,3313.41 2483.67,3314.86 2483.90,3315.33 2483.81,3314.82 2483.42,3313.34"/>
    </edge>
    <edge id=":belfast_8" function="internal">
        <lane id=":belfast_8_0" index="0" speed="8.87" length="35.85" shape="2483.14,3313.41 2488.00,3325.63 2490.91,3329.40 2491.87,3324.72 2490.87,3311.60"/>
    </edge>
    <edge id=":belfast_9" function="internal">
        <lane id=":belfast_9_0" index="0" speed="10.00" length="53.89" shape="2483.14,3313.41 2490.02,3334.38 2493.88,3350.00 2494.70,3360.29 2492.49,3365.22"/>
    </edge>
    <edge id=":belfast_10" function="internal">
        <lane id=":belfast_10_0" index="0" speed="10.00" length="46.41" shape="2483.14,3313.41 2487.68,3328.35 2490.13,3342.36 2488.46,3350.67 2480.66,3348.49"/>
    </edge>
    <edge id=":belfast_11" function="internal">
        <lane id=":belfast_11_0" index="0" speed="8.24" length="28.91" shape="2483.14,3313.41 2484.12,3321.53 2483.11,3331.11 2480.52,3338.00 2476.78,3338.03"/>
    </edge>
    <edge id=":belfast_12" function="internal">
        <lane id=":belfast_12_0" index="0" speed="6.31" length="18.30" shape="2483.14,3313.41 2484.79,3331.63"/>
    </edge>
    <edge id=":belfast_13" function="internal">
        <lane id=":belfast_13_0" index="0" speed="7.50" length="26.75" shape="2483.14,3313.41 2490.39,3317.37 2493.07,3321.73 2491.20,3326.49 2484.76,3331.66"/>
    </edge>
    <edge id=":belfast_14" function="internal">
        <lane id=":belfast_14_0" index="0" speed="6.82" length="21.18" shape="2481.08,3313.93 2484.20,3321.24 2485.63,3323.57 2485.37,3320.94 2483.42,3313.34"/>
    </edge>
    <edge id=":belfast_15" function="internal">
        <lane id=":belfast_15_0" index="0" speed="9.27" length="38.64" shape="2481.08,3313.93 2486.94,3326.75 2490.53,3330.64 2491.84,3325.59 2490.87,3311.60"/>
    </edge>
    <edge id=":belfast_16" function="internal">
        <lane id=":belfast_16_0" index="0" speed="10.00" length="53.86" shape="2481.08,3313.93 2488.89,3334.66 2493.39,3350.12 2494.59,3360.31 2492.49,3365.22"/>
    </edge>
    <edge id=":belfast_17" function="internal">
        <lane id=":belfast_17_0" index="0" speed="10.00" length="45.68" shape="2481.08,3313.93 2486.18,3328.50 2489.25,3342.32 2488.13,3350.58 2480.66,3348.49"/>
    </edge>
    <edge id=":belfast_18" function="internal">
        <lane id=":belfast_18_0" index="0" speed="8.68" length="32.88" shape="2481.08,3313.93 2483.81,3324.45 2484.19,3334.55 2481.94,3340.37 2476.78,3338.03"/>
    </edge>
    <edge id=":belfast_19" function="internal">
        <lane id=":belfast_19_0" index="0" speed="6.25" length="18.11" shape="2481.08,3313.93 2484.76,3331.66"/>
    </edge>
    <edge id=":belfast_20" function="internal">
        <lane id=":belfast_20_0" index="0" speed="7.41" length="26.42" shape="2481.08,3313.93 2488.65,3316.96 2491.79,3320.92 2490.51,3325.81 2484.79,3331.63"/>
    </edge>
    <edge id=":belfast_21" function="internal">
        <lane id=":belfast_21_0" index="0" speed="7.25" length="22.33" shape="2479.29,3336.03 2484.73,3341.63 2487.46,3342.77 2487.47,3339.45 2484.76,3331.66"/>
    </edge>
    <edge id=":belfast_22" function="internal">
        <lane id=":belfast_22_0" index="0" speed="7.26" length="22.39" shape="2479.29,3336.03 2484.74,3341.64 2487.48,3342.78 2487.50,3339.44 2484.79,3331.63"/>
    </edge>
    <edge id=":belfast_23" function="internal">
        <lane id=":belfast_23_0" index="0" speed="9.45" length="37.59" shape="2479.29,3336.03 2485.28,3341.21 2487.96,3339.15 2487.34,3329.86 2483.42,3313.34"/>
    </edge>
    <edge id=":belfast_24" function="internal">
        <lane id=":belfast_24_0" index="0" speed="10.00" length="41.69" shape="2479.29,3336.03 2486.21,3341.64 2490.45,3339.44 2492.00,3329.42 2490.87,3311.60"/>
    </edge>
    <edge id=":belfast_25" function="internal">
        <lane id=":belfast_25_0" index="0" speed="10.00" length="34.61" shape="2479.29,3336.03 2487.21,3345.69 2492.76,3354.15 2494.87,3360.85 2492.49,3365.22"/>
    </edge>
    <edge id=":belfast_26" function="internal">
        <lane id=":belfast_26_0" index="0" speed="6.25" length="16.94" shape="2479.29,3336.03 2482.20,3340.80 2483.75,3345.84 2483.40,3349.09 2480.66,3348.49"/>
    </edge>
    <edge id=":belfast_27" function="internal">
        <lane id=":belfast_27_0" index="0" speed="3.65" length="4.68" shape="2479.29,3336.03 2479.41,3337.47 2479.03,3338.28 2478.16,3338.47 2476.78,3338.03"/>
    </edge>
    <edge id=":bray_0" function="internal">
        <lane id=":bray_0_0" index="0" speed="10.00" length="19.10" shape="2442.91,1655.69 2444.91,1658.59 2446.18,1662.60 2446.70,1667.72 2446.47,1673.95"/>
    </edge>
    <edge id=":bray_1" function="internal">
        <lane id=":bray_1_0" index="0" speed="10.00" length="18.10" shape="2442.91,1655.69 2444.74,1658.62 2445.21,1662.44 2444.30,1667.13 2442.03,1672.70"/>
    </edge>
    <edge id=":bray_2" function="internal">
        <lane id=":bray_2_0" index="0" speed="6.40" length="12.29" shape="2442.91,1655.69 2443.58,1658.09 2442.26,1660.93 2439.80,1663.46 2437.02,1664.91"/>
    </edge>
    <edge id=":bray_3" function="internal">
        <lane id=":bray_3_0" index="0" speed="3.65" length="4.67" shape="2442.91,1655.69 2443.20,1657.10 2442.92,1657.95 2442.08,1658.24 2440.66,1657.96"/>
    </edge>
    <edge id=":bray_4" function="internal">
        <lane id=":bray_4_0" index="0" speed="10.00" length="19.03" shape="2442.77,1655.83 2444.84,1658.66 2446.14,1662.62 2446.69,1667.72 2446.47,1673.95"/>
    </edge>
    <edge id=":bray_5" function="internal">
        <lane id=":bray_5_0" index="0" speed="10.00" length="18.01" shape="2442.77,1655.83 2444.67,1658.69 2445.18,1662.45 2444.30,1667.12 2442.03,1672.70"/>
    </edge>
    <edge id=":bray_6" function="internal">
        <lane id=":bray_6_0" index="0" speed="6.30" length="12.10" shape="2442.77,1655.83 2443.47,1658.15 2442.19,1660.96 2439.75,1663.47 2437.02,1664.91"/>
    </edge>
    <edge id=":bray_7" function="internal">
        <lane id=":bray_7_0" index="0" speed="10.00" length="89.67" shape="2442.77,1655.83 2417.98,1633.12 2409.36,1625.91 2416.92,1634.19 2440.66,1657.96"/>
    </edge>
    <edge id=":bray_8" function="internal">
        <lane id=":bray_8_0" index="0" speed="5.61" length="12.74" shape="2436.89,1664.60 2433.05,1667.16 2432.00,1668.57 2433.74,1668.81 2438.26,1667.90"/>
    </edge>
    <edge id=":bray_9" function="internal">
        <lane id=":bray_9_0" index="0" speed="5.97" length="8.85" shape="2436.89,1664.60 2439.57,1662.72 2441.09,1660.99 2441.46,1659.40 2440.66,1657.96"/>
    </edge>
    <edge id=":bray_10" function="internal">
        <lane id=":bray_10_0" index="0" speed="6.88" length="15.13" shape="2436.89,1664.60 2440.06,1664.47 2443.26,1666.75 2445.68,1670.29 2446.47,1673.95"/>
    </edge>
    <edge id=":bray_11" function="internal">
        <lane id=":bray_11_0" index="0" speed="5.55" length="11.08" shape="2436.89,1664.60 2439.05,1664.77 2441.02,1666.96 2442.21,1670.00 2442.03,1672.70"/>
    </edge>
    <edge id=":bray_12" function="internal">
        <lane id=":bray_12_0" index="0" speed="4.24" length="4.97" shape="2439.16,1671.29 2439.86,1669.53 2439.95,1668.38 2439.41,1667.84 2438.26,1667.90"/>
    </edge>
    <edge id=":bray_13" function="internal">
        <lane id=":bray_13_0" index="0" speed="9.13" length="14.14" shape="2439.16,1671.29 2441.09,1666.72 2441.98,1662.98 2441.84,1660.06 2440.66,1657.96"/>
    </edge>
    <edge id=":bray_14" function="internal">
        <lane id=":bray_14_0" index="0" speed="5.28" length="10.74" shape="2439.16,1671.29 2441.16,1669.46 2443.67,1669.55 2445.76,1671.17 2446.47,1673.95"/>
    </edge>
    <edge id=":bray_15" function="internal">
        <lane id=":bray_15_0" index="0" speed="3.65" length="4.67" shape="2439.16,1671.29 2440.40,1670.57 2441.30,1670.56 2441.84,1671.28 2442.03,1672.70"/>
    </edge>
    <edge id=":carlow_0" function="internal">
        <lane id=":carlow_0_0" index="0" speed="9.29" length="38.48" shape="1896.10,1192.09 1891.76,1178.93 1888.51,1174.82 1886.36,1179.74 1885.31,1193.71"/>
    </edge>
    <edge id=":carlow_1" function="internal">
        <lane id=":carlow_1_0" index="0" speed="9.78" length="41.67" shape="1896.10,1192.09 1891.32,1178.16 1887.35,1173.80 1884.18,1179.00 1881.82,1193.76"/>
    </edge>
    <edge id=":carlow_2" function="internal">
        <lane id=":carlow_2_0" index="0" speed="9.99" length="42.90" shape="1896.10,1192.09 1891.15,1177.88 1886.85,1173.40 1883.20,1178.63 1880.20,1193.59"/>
    </edge>
    <edge id=":carlow_3" function="internal">
        <lane id=":carlow_3_0" index="0" speed="10.00" length="42.03" shape="1896.10,1192.09 1890.85,1176.90 1886.01,1170.85 1881.61,1173.92 1877.63,1186.13"/>
    </edge>
    <edge id=":carlow_4" function="internal">
        <lane id=":carlow_4_0" index="0" speed="10.00" length="41.97" shape="1896.10,1192.09 1890.65,1173.84 1886.07,1161.67 1882.38,1155.59 1879.57,1155.60"/>
    </edge>
    <edge id=":carlow_5" function="internal">
        <lane id=":carlow_5_0" index="0" speed="10.00" length="50.63" shape="1896.10,1192.09 1890.12,1172.68 1884.47,1158.87 1879.15,1150.66 1874.17,1148.06"/>
    </edge>
    <edge id=":carlow_6" function="internal">
        <lane id=":carlow_6_0" index="0" speed="10.00" length="45.87" shape="1896.10,1192.09 1892.16,1176.53 1889.31,1161.66 1889.41,1153.32 1894.30,1157.35"/>
    </edge>
    <edge id=":carlow_7" function="internal">
        <lane id=":carlow_7_0" index="0" speed="3.66" length="4.71" shape="1896.10,1192.09 1896.72,1190.78 1897.46,1190.26 1898.31,1190.54 1899.29,1191.61"/>
    </edge>
    <edge id=":carlow_8" function="internal">
        <lane id=":carlow_8_0" index="0" speed="5.52" length="9.52" shape="1877.04,1153.63 1878.58,1151.08 1878.61,1149.30 1877.14,1148.29 1874.17,1148.06"/>
    </edge>
    <edge id=":carlow_9" function="internal">
        <lane id=":carlow_9_0" index="0" speed="8.83" length="21.95" shape="1877.04,1153.63 1881.15,1149.97 1885.39,1149.37 1889.78,1151.83 1894.30,1157.35"/>
    </edge>
    <edge id=":carlow_10" function="internal">
        <lane id=":carlow_10_0" index="0" speed="10.00" length="48.76" shape="1877.04,1153.63 1882.64,1152.34 1888.42,1160.31 1894.07,1174.43 1899.29,1191.61"/>
    </edge>
    <edge id=":carlow_11" function="internal">
        <lane id=":carlow_11_0" index="0" speed="10.00" length="46.76" shape="1877.04,1153.63 1881.83,1152.31 1884.44,1161.25 1885.41,1176.40 1885.31,1193.71"/>
    </edge>
    <edge id=":carlow_12" function="internal">
        <lane id=":carlow_12_0" index="0" speed="10.00" length="46.64" shape="1877.04,1153.63 1881.66,1152.19 1883.43,1161.26 1883.20,1176.54 1881.82,1193.76"/>
    </edge>
    <edge id=":carlow_13" function="internal">
        <lane id=":carlow_13_0" index="0" speed="10.00" length="46.53" shape="1877.04,1153.63 1881.59,1152.10 1882.97,1161.18 1882.17,1176.48 1880.20,1193.59"/>
    </edge>
    <edge id=":carlow_14" function="internal">
        <lane id=":carlow_14_0" index="0" speed="9.78" length="40.50" shape="1877.04,1153.63 1881.59,1151.22 1882.29,1158.82 1880.51,1171.95 1877.63,1186.13"/>
    </edge>
    <edge id=":carlow_15" function="internal">
        <lane id=":carlow_15_0" index="0" speed="3.65" length="4.67" shape="1877.04,1153.63 1878.41,1153.18 1879.29,1153.35 1879.68,1154.16 1879.57,1155.60"/>
    </edge>
    <edge id=":carrick_0" function="internal">
        <lane id=":carrick_0_0" index="0" speed="5.61" length="11.94" shape="1140.69,2591.15 1136.93,2589.36 1135.12,2589.37 1135.26,2591.17 1137.36,2594.77"/>
    </edge>
    <edge id=":carrick_1" function="internal">
        <lane id=":carrick_1_0" index="0" speed="5.83" length="12.81" shape="1140.69,2591.15 1136.68,2589.27 1134.68,2589.32 1134.68,2591.30 1136.70,2595.21"/>
    </edge>
    <edge id=":carrick_2" function="internal">
        <lane id=":carrick_2_0" index="0" speed="10.00" length="28.51" shape="1140.69,2591.15 1135.91,2587.72 1129.47,2582.26 1123.45,2576.41 1119.92,2571.82"/>
    </edge>
    <edge id=":carrick_3" function="internal">
        <lane id=":carrick_3_0" index="0" speed="10.00" length="33.64" shape="1140.69,2591.15 1133.92,2585.78 1130.37,2579.15 1130.03,2571.26 1132.91,2562.12"/>
    </edge>
    <edge id=":carrick_4" function="internal">
        <lane id=":carrick_4_0" index="0" speed="10.00" length="31.85" shape="1140.69,2591.15 1133.53,2585.62 1130.82,2579.61 1132.25,2572.88 1137.54,2565.20"/>
    </edge>
    <edge id=":carrick_5" function="internal">
        <lane id=":carrick_5_0" index="0" speed="3.77" length="4.74" shape="1136.89,2564.42 1136.07,2566.04 1135.91,2566.70 1136.40,2566.42 1137.54,2565.20"/>
    </edge>
    <edge id=":carrick_6" function="internal">
        <lane id=":carrick_6_0" index="0" speed="10.00" length="32.05" shape="1136.89,2564.42 1133.54,2572.50 1132.50,2580.25 1133.77,2587.67 1137.36,2594.77"/>
    </edge>
    <edge id=":carrick_7" function="internal">
        <lane id=":carrick_7_0" index="0" speed="10.00" length="32.35" shape="1136.89,2564.42 1133.49,2572.54 1132.32,2580.38 1133.39,2587.94 1136.70,2595.21"/>
    </edge>
    <edge id=":carrick_8" function="internal">
        <lane id=":carrick_8_0" index="0" speed="8.49" length="23.88" shape="1136.89,2564.42 1132.77,2570.69 1128.19,2575.00 1123.72,2575.86 1119.92,2571.82"/>
    </edge>
    <edge id=":carrick_9" function="internal">
        <lane id=":carrick_9_0" index="0" speed="4.19" length="6.71" shape="1136.89,2564.42 1135.03,2565.34 1133.74,2565.26 1133.04,2564.18 1132.91,2562.12"/>
    </edge>
    <edge id=":carrick_10" function="internal">
        <lane id=":carrick_10_0" index="0" speed="4.29" length="7.03" shape="1133.65,2562.48 1134.41,2559.95 1134.54,2559.05 1134.04,2559.77 1132.91,2562.12"/>
    </edge>
    <edge id=":carrick_11" function="internal">
        <lane id=":carrick_11_0" index="0" speed="5.72" length="12.78" shape="1133.65,2562.48 1132.50,2566.97 1132.77,2568.91 1134.45,2568.32 1137.54,2565.20"/>
    </edge>
    <edge id=":carrick_12" function="internal">
        <lane id=":carrick_12_0" index="0" speed="10.00" length="33.68" shape="1133.65,2562.48 1131.68,2571.35 1131.63,2579.68 1133.53,2587.49 1137.36,2594.77"/>
    </edge>
    <edge id=":carrick_13" function="internal">
        <lane id=":carrick_13_0" index="0" speed="10.00" length="33.94" shape="1133.65,2562.48 1131.63,2571.39 1131.46,2579.81 1133.15,2587.76 1136.70,2595.21"/>
    </edge>
    <edge id=":carrick_14" function="internal">
        <lane id=":carrick_14_0" index="0" speed="7.80" length="21.84" shape="1133.65,2562.48 1130.87,2568.82 1127.20,2573.58 1123.32,2575.12 1119.92,2571.82"/>
    </edge>
    <edge id=":carrick_15" function="internal">
        <lane id=":carrick_15_0" index="0" speed="7.04" length="16.49" shape="1122.82,2570.46 1124.64,2572.47 1126.92,2571.75 1129.68,2568.29 1132.91,2562.12"/>
    </edge>
    <edge id=":carrick_16" function="internal">
        <lane id=":carrick_16_0" index="0" speed="8.01" length="18.76" shape="1122.82,2570.46 1125.08,2572.99 1128.29,2572.96 1132.44,2570.36 1137.54,2565.20"/>
    </edge>
    <edge id=":carrick_17" function="internal">
        <lane id=":carrick_17_0" index="0" speed="10.00" length="28.33" shape="1122.82,2570.46 1125.59,2575.59 1129.83,2582.76 1134.19,2589.87 1137.36,2594.77"/>
    </edge>
    <edge id=":carrick_18" function="internal">
        <lane id=":carrick_18_0" index="0" speed="10.00" length="28.38" shape="1122.82,2570.46 1125.51,2575.64 1129.57,2582.94 1133.72,2590.19 1136.70,2595.21"/>
    </edge>
    <edge id=":carrick_19" function="internal">
        <lane id=":carrick_19_0" index="0" speed="3.65" length="4.67" shape="1122.82,2570.46 1122.60,2571.89 1122.05,2572.59 1121.16,2572.57 1119.92,2571.82"/>
    </edge>
    <edge id=":carrick_20" function="internal">
        <lane id=":carrick_20_0" index="0" speed="7.23" length="17.01" shape="1122.29,2570.71 1124.30,2572.69 1126.74,2571.91 1129.61,2568.39 1132.91,2562.12"/>
    </edge>
    <edge id=":carrick_21" function="internal">