<?xml version="1.0" encoding="UTF-8"?>

<!-- generated on 2025-02-19 12:59:06 by Eclipse SUMO netconvert Version 1.18.0
<configuration xmlns:xsi="http://www.w3.org/2001/XMLSchema-instance" xsi:noNamespaceSchemaLocation="http://sumo.dlr.de/xsd/netconvertConfiguration.xsd">

    <input>
        <node-files value="nod.xml"/>
        <edge-files value="edge_xmls/09285.xml"/>
    </input>

    <output>
        <output-file value="networks/09285.net.xml"/>
    </output>

</configuration>
-->

<net version="1.16" junctionCornerDetail="5" limitTurnSpeed="5.50" xmlns:xsi="http://www.w3.org/2001/XMLSchema-instance" xsi:noNamespaceSchemaLocation="http://sumo.dlr.de/xsd/net_file.xsd">

    <location netOffset="-682.00,4368.00" convBoundary="0.00,0.00,2498.00,3881.00" origBoundary="682.00,-4368.00,3180.00,-487.00" projParameter="!"/>

    <edge id=":antrim_0" function="internal">
        <lane id=":antrim_0_0" index="0" speed="7.04" length="22.01" shape="2276.44,3492.70 2269.46,3497.06 2267.36,3499.20 2270.14,3499.13 2277.80,3496.83"/>
        <lane id=":antrim_0_1" index="1" speed="4.04" length="5.81" shape="2276.44,3492.70 2274.60,3493.85 2274.04,3494.42 2274.78,3494.40 2276.80,3493.79"/>
    </edge>
    <edge id=":antrim_2" function="internal">
        <lane id=":antrim_2_0" index="0" speed="6.51" length="12.93" shape="2276.44,3492.70 2278.54,3490.78 2278.57,3488.63 2276.54,3486.27 2272.46,3483.69"/>
    </edge>
    <edge id=":antrim_3" function="internal">
        <lane id=":antrim_3_0" index="0" speed="9.15" length="22.50" shape="2276.44,3492.70 2278.60,3490.02 2278.09,3486.02 2274.92,3480.70 2269.09,3474.07"/>
    </edge>
    <edge id=":antrim_4" function="internal">
        <lane id=":antrim_4_0" index="0" speed="9.00" length="20.71" shape="2276.44,3492.70 2277.52,3490.67 2276.46,3487.07 2273.26,3481.91 2267.93,3475.17"/>
        <lane id=":antrim_4_1" index="1" speed="9.46" length="23.03" shape="2276.44,3492.70 2278.72,3489.92 2278.44,3485.70 2275.62,3480.05 2270.26,3472.96"/>
    </edge>
    <edge id=":antrim_6" function="internal">
        <lane id=":antrim_6_0" index="0" speed="9.72" length="23.50" shape="2276.44,3492.70 2278.80,3489.85 2278.71,3485.47 2276.15,3479.56 2271.14,3472.12"/>
    </edge>
    <edge id=":antrim_7" function="internal">
        <lane id=":antrim_7_0" index="0" speed="9.43" length="21.41" shape="2276.44,3492.70 2277.68,3490.54 2276.93,3486.66 2274.19,3481.05 2269.45,3473.72"/>
        <lane id=":antrim_7_1" index="1" speed="9.93" length="23.88" shape="2276.44,3492.70 2278.87,3489.80 2278.91,3485.29 2276.55,3479.19 2271.80,3471.49"/>
    </edge>
    <edge id=":antrim_9" function="internal">
        <lane id=":antrim_9_0" index="0" speed="10.00" length="29.12" shape="2276.44,3492.70 2279.33,3489.31 2280.37,3483.59 2279.54,3475.52 2276.85,3465.12"/>
    </edge>
    <edge id=":antrim_10" function="internal">
        <lane id=":antrim_10_0" index="0" speed="10.00" length="55.47" shape="2276.44,3492.70 2279.37,3487.60 2280.36,3476.83 2279.41,3460.39 2276.50,3438.28"/>
    </edge>
    <edge id=":antrim_11" function="internal">
        <lane id=":antrim_11_0" index="0" speed="10.00" length="55.28" shape="2276.44,3492.70 2278.47,3488.24 2279.77,3477.63 2280.36,3460.87 2280.22,3437.96"/>
        <lane id=":antrim_11_1" index="1" speed="10.00" length="56.12" shape="2276.44,3492.70 2279.85,3487.55 2282.16,3476.69 2283.35,3460.14 2283.42,3437.89"/>
    </edge>
    <edge id=":antrim_13" function="internal">
        <lane id=":antrim_13_0" index="0" speed="10.00" length="40.03" shape="2276.44,3492.70 2280.14,3488.60 2283.19,3480.95 2285.60,3469.76 2287.37,3455.04"/>
    </edge>
    <edge id=":athlone_0" function="internal">
        <lane id=":athlone_0_0" index="0" speed="10.00" length="59.43" shape="1270.99,2020.70 1263.68,1995.75 1257.75,1978.28 1253.21,1968.31 1250.05,1965.81"/>
    </edge>
    <edge id=":athlone_1" function="internal">
        <lane id=":athlone_1_0" index="0" speed="10.00" length="77.36" shape="1270.99,2020.70 1266.55,2007.92 1257.84,1984.23 1248.77,1960.72 1243.26,1948.51"/>
    </edge>
    <edge id=":athlone_2" function="internal">
        <lane id=":athlone_2_0" index="0" speed="10.00" length="90.73" shape="1270.99,2020.70 1266.06,2005.92 1256.34,1977.75 1246.46,1949.65 1241.01,1935.07"/>
    </edge>
    <edge id=":athlone_3" function="internal">
        <lane id=":athlone_3_0" index="0" speed="10.00" length="90.78" shape="1270.99,2020.70 1244.93,1933.65"/>
        <lane id=":athlone_3_1" index="1" speed="10.00" length="90.78" shape="1270.99,2020.70 1248.05,1932.95"/>
    </edge>
    <edge id=":athlone_5" function="internal">
        <lane id=":athlone_5_0" index="0" speed="10.00" length="69.42" shape="1270.99,2020.70 1268.09,2008.68 1263.18,1986.58 1258.88,1964.52 1257.85,1952.62"/>
    </edge>
    <edge id=":athlone_6" function="internal">
        <lane id=":athlone_6_0" index="0" speed="7.67" length="25.98" shape="1270.99,2020.70 1271.46,2013.52 1275.60,2008.15 1281.24,2006.35 1286.21,2009.85"/>
    </edge>
    <edge id=":athlone_7" function="internal">
        <lane id=":athlone_7_0" index="0" speed="7.49" length="26.25" shape="1270.99,2020.70 1268.28,2011.53 1267.03,2008.71 1267.25,2012.26 1268.94,2022.16"/>
    </edge>
    <edge id=":athlone_8" function="internal">
        <lane id=":athlone_8_0" index="0" speed="10.00" length="53.88" shape="1283.59,2011.71 1273.55,1996.64 1267.76,1993.36 1266.22,2001.87 1268.94,2022.16"/>
    </edge>
    <edge id=":athlone_9" function="internal">
        <lane id=":athlone_9_0" index="0" speed="10.00" length="57.57" shape="1283.59,2011.71 1270.91,1990.62 1261.10,1975.94 1254.14,1967.67 1250.05,1965.81"/>
    </edge>
    <edge id=":athlone_10" function="internal">
        <lane id=":athlone_10_0" index="0" speed="10.00" length="74.98" shape="1283.59,2011.71 1276.69,2000.55 1263.70,1979.92 1250.58,1959.38 1243.26,1948.51"/>
    </edge>
    <edge id=":athlone_11" function="internal">
        <lane id=":athlone_11_0" index="0" speed="10.00" length="87.68" shape="1283.59,2011.71 1241.01,1935.07"/>
    </edge>
    <edge id=":athlone_12" function="internal">
        <lane id=":athlone_12_0" index="0" speed="10.00" length="87.15" shape="1283.59,2011.71 1276.80,1999.06 1264.14,1974.72 1251.54,1949.36 1244.93,1933.65"/>
    </edge>
    <edge id=":athlone_13" function="internal">
        <lane id=":athlone_13_0" index="0" speed="10.00" length="65.10" shape="1283.59,2011.71 1270.97,1989.04 1262.47,1971.64 1258.09,1959.50 1257.85,1952.62"/>
    </edge>
    <edge id=":athlone_14" function="internal">
        <lane id=":athlone_14_0" index="0" speed="3.66" length="4.69" shape="1283.59,2011.71 1283.55,2010.26 1283.97,2009.47 1284.85,2009.33 1286.21,2009.85"/>
    </edge>
    <edge id=":athlone_15" function="internal">
        <lane id=":athlone_15_0" index="0" speed="10.00" length="55.64" shape="1285.67,2010.23 1274.64,1995.41 1268.18,1992.46 1266.28,2001.38 1268.94,2022.16"/>
    </edge>
    <edge id=":athlone_16" function="internal">
        <lane id=":athlone_16_0" index="0" speed="10.00" length="57.65" shape="1285.67,2010.23 1272.10,1989.77 1261.65,1975.55 1254.29,1967.57 1250.05,1965.81"/>
    </edge>
    <edge id=":athlone_17" function="internal">
        <lane id=":athlone_17_0" index="0" speed="10.00" length="74.89" shape="1285.67,2010.23 1278.36,1999.35 1264.67,1979.22 1250.88,1959.17 1243.26,1948.51"/>
    </edge>
    <edge id=":athlone_18" function="internal">
        <lane id=":athlone_18_0" index="0" speed="10.00" length="87.43" shape="1285.67,2010.23 1277.87,1997.34 1263.18,1972.74 1248.56,1948.10 1241.01,1935.07"/>
    </edge>
    <edge id=":athlone_19" function="internal">
        <lane id=":athlone_19_0" index="0" speed="10.00" length="86.00" shape="1285.67,2010.23 1278.96,1997.75 1266.67,1973.67 1254.48,1948.55 1248.05,1932.95"/>
    </edge>
    <edge id=":athlone_20" function="internal">
        <lane id=":athlone_20_0" index="0" speed="10.00" length="64.69" shape="1285.67,2010.23 1272.13,1988.22 1262.98,1971.29 1258.22,1959.42 1257.85,1952.62"/>
    </edge>
    <edge id=":athlone_21" function="internal">
        <lane id=":athlone_21_0" index="0" speed="5.79" length="14.99" shape="1285.67,2010.23 1288.73,2014.93 1289.84,2016.43 1289.00,2014.73 1286.21,2009.85"/>
    </edge>
    <edge id=":athlone_22" function="internal">
        <lane id=":athlone_22_0" index="0" speed="7.96" length="29.68" shape="1288.96,2007.88 1282.20,1999.16 1279.48,1996.58 1280.82,2000.14 1286.21,2009.85"/>
    </edge>
    <edge id=":athlone_23" function="internal">
        <lane id=":athlone_23_0" index="0" speed="10.00" length="58.28" shape="1288.96,2007.88 1276.41,1993.62 1268.89,1991.24 1266.39,2000.76 1268.94,2022.16"/>
    </edge>
    <edge id=":athlone_24" function="internal">
        <lane id=":athlone_24_0" index="0" speed="10.00" length="57.99" shape="1288.96,2007.88 1273.99,1988.44 1262.51,1974.94 1254.53,1967.40 1250.05,1965.81"/>
    </edge>
    <edge id=":athlone_25" function="internal">
        <lane id=":athlone_25_0" index="0" speed="10.00" length="74.92" shape="1288.96,2007.88 1243.26,1948.51"/>
    </edge>
    <edge id=":athlone_26" function="internal">
        <lane id=":athlone_26_0" index="0" speed="10.00" length="87.19" shape="1288.96,2007.88 1280.53,1995.44 1264.71,1971.64 1249.04,1947.76 1241.01,1935.07"/>
    </edge>
    <edge id=":athlone_27" function="internal">
        <lane id=":athlone_27_0" index="0" speed="10.00" length="85.44" shape="1288.96,2007.88 1281.62,1995.86 1268.21,1972.57 1254.95,1948.21 1248.05,1932.95"/>
    </edge>
    <edge id=":athlone_28" function="internal">
        <lane id=":athlone_28_0" index="0" speed="10.00" length="63.48" shape="1288.96,2007.88 1281.75,1996.50 1271.12,1978.26 1261.64,1961.01 1257.85,1952.62"/>
    </edge>
    <edge id=":athlone_29" function="internal">
        <lane id=":athlone_29_0" index="0" speed="10.00" length="55.52" shape="1272.72,1960.36 1268.26,1964.16 1269.03,1973.68 1275.01,1988.91 1286.21,2009.85"/>
    </edge>
    <edge id=":athlone_30" function="internal">
        <lane id=":athlone_30_0" index="0" speed="10.00" length="65.18" shape="1272.72,1960.36 1266.92,1964.97 1264.35,1976.81 1265.03,1995.87 1268.94,2022.16"/>
    </edge>
    <edge id=":athlone_31" function="internal">
        <lane id=":athlone_31_0" index="0" speed="10.00" length="23.37" shape="1272.72,1960.36 1267.72,1961.17 1261.20,1962.49 1254.78,1964.10 1250.05,1965.81"/>
    </edge>
    <edge id=":athlone_32" function="internal">
        <lane id=":athlone_32_0" index="0" speed="10.00" length="33.18" shape="1272.72,1960.36 1264.37,1960.50 1256.67,1958.57 1249.64,1954.57 1243.26,1948.51"/>
    </edge>
    <edge id=":athlone_33" function="internal">
        <lane id=":athlone_33_0" index="0" speed="10.00" length="43.15" shape="1272.72,1960.36 1264.13,1959.67 1255.98,1955.22 1248.27,1947.03 1241.01,1935.07"/>
    </edge>
    <edge id=":athlone_34" function="internal">
        <lane id=":athlone_34_0" index="0" speed="10.00" length="40.66" shape="1272.72,1960.36 1264.45,1959.55 1257.57,1954.72 1252.11,1945.85 1248.05,1932.95"/>
    </edge>
    <edge id=":athlone_35" function="internal">
        <lane id=":athlone_35_0" index="0" speed="7.77" length="18.78" shape="1272.72,1960.36 1267.75,1960.18 1262.38,1958.69 1258.47,1956.10 1257.85,1952.62"/>
    </edge>
    <edge id=":athlone_36" function="internal">
        <lane id=":athlone_36_0" index="0" speed="10.00" length="58.97" shape="1271.64,1956.31 1267.55,1961.71 1268.61,1972.43 1274.83,1988.48 1286.21,2009.85"/>
    </edge>
    <edge id=":athlone_37" function="internal">
        <lane id=":athlone_37_0" index="0" speed="10.00" length="68.35" shape="1271.64,1956.31 1266.28,1962.55 1264.05,1975.61 1264.93,1995.48 1268.94,2022.16"/>
    </edge>
    <edge id=":athlone_38" function="internal">
        <lane id=":athlone_38_0" index="0" speed="10.00" length="23.59" shape="1271.64,1956.31 1250.05,1965.81"/>
    </edge>
    <edge id=":athlone_39" function="internal">
        <lane id=":athlone_39_0" index="0" speed="10.00" length="31.69" shape="1271.64,1956.31 1263.83,1958.30 1256.49,1957.66 1249.64,1954.40 1243.26,1948.51"/>
    </edge>
    <edge id=":athlone_40" function="internal">
        <lane id=":athlone_40_0" index="0" speed="10.00" length="41.02" shape="1271.64,1956.31 1263.58,1957.50 1255.78,1954.36 1248.26,1946.89 1241.01,1935.07"/>
    </edge>
    <edge id=":athlone_41" function="internal">
        <lane id=":athlone_41_0" index="0" speed="10.00" length="34.90" shape="1271.64,1956.31 1265.38,1955.04 1258.05,1948.92 1251.61,1940.65 1248.05,1932.95"/>
    </edge>
    <edge id=":athlone_42" function="internal">
        <lane id=":athlone_42_0" index="0" speed="6.84" length="16.19" shape="1271.64,1956.31 1267.36,1957.11 1262.39,1956.78 1258.59,1955.29 1257.85,1952.62"/>
    </edge>
    <edge id=":athlone_43" function="internal">
        <lane id=":athlone_43_0" index="0" speed="10.00" length="60.66" shape="1262.84,1954.75 1262.46,1960.59 1266.22,1971.71 1274.14,1988.13 1286.21,2009.85"/>
    </edge>
    <edge id=":athlone_44" function="internal">
        <lane id=":athlone_44_0" index="0" speed="10.00" length="68.14" shape="1262.84,1954.75 1261.30,1961.46 1261.80,1974.93 1264.34,1995.17 1268.94,2022.16"/>
    </edge>
    <edge id=":athlone_45" function="internal">
        <lane id=":athlone_45_0" index="0" speed="10.00" length="17.02" shape="1262.84,1954.75 1260.18,1957.83 1256.97,1960.92 1253.50,1963.69 1250.05,1965.81"/>
    </edge>
    <edge id=":athlone_46" function="internal">
        <lane id=":athlone_46_0" index="0" speed="9.54" length="23.89" shape="1262.84,1954.75 1259.08,1957.66 1254.56,1957.59 1249.29,1954.54 1243.26,1948.51"/>
    </edge>
    <edge id=":athlone_47" function="internal">
        <lane id=":athlone_47_0" index="0" speed="10.00" length="30.69" shape="1262.84,1954.75 1258.64,1954.56 1252.23,1949.45 1245.67,1942.08 1241.01,1935.07"/>
    </edge>
    <edge id=":athlone_48" function="internal">
        <lane id=":athlone_48_0" index="0" speed="9.06" length="28.26" shape="1262.84,1954.75 1259.19,1954.64 1254.73,1948.93 1250.64,1940.67 1248.05,1932.95"/>
    </edge>
    <edge id=":athlone_49" function="internal">
        <lane id=":athlone_49_0" index="0" speed="4.58" length="7.93" shape="1262.84,1954.75 1260.79,1956.09 1259.28,1956.18 1258.30,1955.02 1257.85,1952.62"/>
    </edge>
    <edge id=":athlone_50" function="internal">
        <lane id=":athlone_50_0" index="0" speed="5.91" length="12.70" shape="1242.48,1955.55 1245.87,1956.04 1247.13,1955.04 1246.26,1952.53 1243.26,1948.51"/>
    </edge>
    <edge id=":athlone_51" function="internal">
        <lane id=":athlone_51_0" index="0" speed="8.52" length="25.49" shape="1242.48,1955.55 1246.30,1955.37 1247.33,1951.89 1245.57,1945.13 1241.01,1935.07"/>
    </edge>
    <edge id=":athlone_52" function="internal">
        <lane id=":athlone_52_0" index="0" speed="8.97" length="24.94" shape="1242.48,1955.55 1245.58,1955.01 1247.03,1951.18 1246.81,1944.06 1244.93,1933.65"/>
    </edge>
    <edge id=":athlone_53" function="internal">
        <lane id=":athlone_53_0" index="0" speed="9.17" length="17.04" shape="1242.48,1955.55 1248.17,1956.69 1252.62,1956.58 1255.85,1955.23 1257.85,1952.62"/>
    </edge>
    <edge id=":athlone_54" function="internal">
        <lane id=":athlone_54_0" index="0" speed="10.00" length="69.82" shape="1242.48,1955.55 1250.99,1963.99 1265.21,1981.58 1278.99,1999.73 1286.21,2009.85"/>
    </edge>
    <edge id=":athlone_55" function="internal">
        <lane id=":athlone_55_0" index="0" speed="10.00" length="73.43" shape="1242.48,1955.55 1249.73,1961.28 1256.55,1974.29 1262.95,1994.59 1268.94,2022.16"/>
    </edge>
    <edge id=":athlone_56" function="internal">
        <lane id=":athlone_56_0" index="0" speed="7.29" length="18.95" shape="1242.48,1955.55 1249.67,1958.07 1253.33,1960.62 1253.45,1963.20 1250.05,1965.81"/>
    </edge>
    <edge id=":athlone_57" function="internal">
        <lane id=":athlone_57_0" index="0" speed="8.06" length="17.00" shape="1248.60,1962.96 1250.09,1961.13 1249.70,1958.11 1247.42,1953.91 1243.26,1948.51"/>
    </edge>
    <edge id=":athlone_58" function="internal">
        <lane id=":athlone_58_0" index="0" speed="10.00" length="30.04" shape="1248.60,1962.96 1250.09,1960.22 1249.33,1954.66 1246.30,1946.27 1241.01,1935.07"/>
    </edge>
    <edge id=":athlone_59" function="internal">
        <lane id=":athlone_59_0" index="0" speed="10.00" length="29.82" shape="1248.60,1962.96 1249.35,1960.63 1248.99,1954.97 1247.52,1945.98 1244.93,1933.65"/>
    </edge>
    <edge id=":athlone_60" function="internal">
        <lane id=":athlone_60_0" index="0" speed="10.00" length="14.16" shape="1248.60,1962.96 1251.65,1961.04 1254.16,1958.66 1256.20,1955.86 1257.85,1952.62"/>
    </edge>
    <edge id=":athlone_61" function="internal">
        <lane id=":athlone_61_0" index="0" speed="10.00" length="61.49" shape="1248.60,1962.96 1253.96,1964.36 1262.01,1972.65 1272.76,1987.81 1286.21,2009.85"/>
    </edge>
    <edge id=":athlone_62" function="internal">
        <lane id=":athlone_62_0" index="0" speed="10.00" length="62.69" shape="1248.60,1962.96 1252.32,1970.59 1258.85,1988.94 1265.33,2009.10 1268.94,2022.16"/>
    </edge>
    <edge id=":athlone_63" function="internal">
        <lane id=":athlone_63_0" index="0" speed="3.65" length="4.67" shape="1248.60,1962.96 1250.03,1963.13 1250.75,1963.66 1250.76,1964.56 1250.05,1965.81"/>
    </edge>
    <edge id=":belfast_0" function="internal">
        <lane id=":belfast_0_0" index="0" speed="10.00" length="35.53" shape="2496.01,3328.40 2497.35,3342.76 2497.70,3353.38 2497.03,3360.26 2495.36,3363.41"/>
    </edge>
    <edge id=":belfast_1" function="internal">
        <lane id=":belfast_1_0" index="0" speed="10.00" length="59.16" shape="2496.01,3328.40 2492.94,3340.61 2481.93,3341.98 2466.68,3335.76 2450.87,3325.22"/>
    </edge>
    <edge id=":belfast_2" function="internal">
        <lane id=":belfast_2_0" index="0" speed="10.00" length="48.45" shape="2496.01,3328.40 2493.38,3338.71 2484.21,3340.61 2471.77,3336.16 2459.31,3327.41"/>
    </edge>
    <edge id=":belfast_3" function="internal">
        <lane id=":belfast_3_0" index="0" speed="10.00" length="50.29" shape="2496.01,3328.40 2493.25,3337.86 2483.83,3337.08 2471.38,3329.40 2459.51,3318.15"/>
    </edge>
    <edge id=":belfast_4" function="internal">
        <lane id=":belfast_4_0" index="0" speed="9.42" length="39.95" shape="2496.01,3328.40 2494.37,3334.24 2488.47,3329.78 2481.03,3319.32 2474.81,3307.16"/>
    </edge>
    <edge id=":belfast_5" function="internal">
        <lane id=":belfast_5_0" index="0" speed="3.43" length="3.84" shape="2496.01,3328.40 2495.44,3329.44 2494.82,3329.83 2494.14,3329.56 2493.39,3328.64"/>
    </edge>
    <edge id=":belfast_6" function="internal">
        <lane id=":belfast_6_0" index="0" speed="9.09" length="37.65" shape="2480.75,3303.94 2486.91,3321.40 2491.08,3331.34 2493.24,3333.75 2493.39,3328.64"/>
    </edge>
    <edge id=":belfast_7" function="internal">
        <lane id=":belfast_7_0" index="0" speed="10.00" length="61.73" shape="2480.75,3303.94 2488.85,3328.95 2493.99,3347.20 2496.16,3358.68 2495.36,3363.41"/>
    </edge>
    <edge id=":belfast_8" function="internal">
        <lane id=":belfast_8_0" index="0" speed="10.00" length="40.06" shape="2480.75,3303.94 2478.26,3311.59 2469.50,3319.79 2458.89,3325.39 2450.87,3325.22"/>
    </edge>
    <edge id=":belfast_9" function="internal">
        <lane id=":belfast_9_0" index="0" speed="10.00" length="43.15" shape="2480.75,3303.94 2481.63,3316.32 2477.07,3326.37 2469.00,3331.07 2459.31,3327.41"/>
    </edge>
    <edge id=":belfast_10" function="internal">
        <lane id=":belfast_10_0" index="0" speed="9.06" length="35.19" shape="2480.75,3303.94 2480.65,3313.34 2475.32,3320.11 2467.40,3322.35 2459.51,3318.15"/>
    </edge>
    <edge id=":belfast_11" function="internal">
        <lane id=":belfast_11_0" index="0" speed="4.86" length="9.86" shape="2480.75,3303.94 2480.47,3306.97 2479.39,3308.52 2477.50,3308.58 2474.81,3307.16"/>
    </edge>
    <edge id=":belfast_12" function="internal">
        <lane id=":belfast_12_0" index="0" speed="8.19" length="31.44" shape="2471.49,3308.97 2477.36,3319.05 2479.87,3322.11 2479.02,3318.15 2474.81,3307.16"/>
    </edge>
    <edge id=":belfast_13" function="internal">
        <lane id=":belfast_13_0" index="0" speed="10.00" length="43.65" shape="2471.49,3308.97 2481.93,3326.53 2489.06,3335.66 2492.88,3336.37 2493.39,3328.64"/>
    </edge>
    <edge id=":belfast_14" function="internal">
        <lane id=":belfast_14_0" index="0" speed="10.00" length="60.07" shape="2471.49,3308.97 2483.73,3331.73 2491.79,3348.39 2495.67,3358.95 2495.36,3363.41"/>
    </edge>
    <edge id=":belfast_15" function="internal">
        <lane id=":belfast_15_0" index="0" speed="8.51" length="30.69" shape="2471.49,3308.97 2471.03,3315.49 2465.36,3321.98 2457.60,3326.03 2450.87,3325.22"/>
    </edge>
    <edge id=":belfast_16" function="internal">
        <lane id=":belfast_16_0" index="0" speed="6.92" length="21.10" shape="2471.49,3308.97 2472.11,3314.38 2469.09,3318.68 2464.28,3320.42 2459.51,3318.15"/>
    </edge>
    <edge id=":belfast_17" function="internal">
        <lane id=":belfast_17_0" index="0" speed="8.61" length="32.28" shape="2471.49,3308.97 2475.36,3318.14 2474.62,3324.28 2469.27,3327.37 2459.31,3327.41"/>
    </edge>
    <edge id=":belfast_18" function="internal">
        <lane id=":belfast_18_0" index="0" speed="10.00" length="51.82" shape="2460.33,3317.45 2473.59,3329.99 2480.42,3332.46 2480.83,3324.85 2474.81,3307.16"/>
    </edge>
    <edge id=":belfast_19" function="internal">
        <lane id=":belfast_19_0" index="0" speed="10.00" length="49.60" shape="2460.33,3317.45 2475.76,3332.41 2486.41,3339.26 2492.29,3338.01 2493.39,3328.64"/>
    </edge>
    <edge id=":belfast_20" function="internal">
        <lane id=":belfast_20_0" index="0" speed="10.00" length="58.63" shape="2460.33,3317.45 2475.67,3334.16 2487.69,3348.26 2494.79,3358.45 2495.36,3363.41"/>
    </edge>
    <edge id=":belfast_21" function="internal">
        <lane id=":belfast_21_0" index="0" speed="6.25" length="17.16" shape="2460.33,3317.45 2461.56,3321.34 2459.35,3324.76 2455.26,3326.47 2450.87,3325.22"/>
    </edge>
    <edge id=":belfast_22" function="internal">
        <lane id=":belfast_22_0" index="0" speed="5.21" length="11.56" shape="2460.33,3317.45 2461.48,3320.34 2461.60,3324.18 2460.84,3327.14 2459.31,3327.41"/>
    </edge>
    <edge id=":belfast_23" function="internal">
        <lane id=":belfast_23_0" index="0" speed="2.73" length="1.58" shape="2460.33,3317.45 2460.39,3317.93 2460.27,3318.21 2459.98,3318.28 2459.51,3318.15"/>
    </edge>
    <edge id=":belfast_24" function="internal">
        <lane id=":belfast_24_0" index="0" speed="8.24" length="31.91" shape="2448.96,3328.50 2459.20,3334.41 2462.93,3335.83 2460.15,3332.77 2450.87,3325.22"/>
    </edge>
    <edge id=":belfast_25" function="internal">
        <lane id=":belfast_25_0" index="0" speed="9.09" length="38.24" shape="2448.96,3328.50 2462.87,3336.44 2469.22,3338.91 2468.04,3335.90 2459.31,3327.41"/>
    </edge>
    <edge id=":belfast_26" function="internal">
        <lane id=":belfast_26_0" index="0" speed="10.00" length="49.68" shape="2448.96,3328.50 2465.05,3337.18 2472.17,3338.35 2470.33,3332.01 2459.51,3318.15"/>
    </edge>
    <edge id=":belfast_27" function="internal">
        <lane id=":belfast_27_0" index="0" speed="10.00" length="62.35" shape="2448.96,3328.50 2467.73,3337.53 2478.30,3336.99 2480.66,3326.86 2474.81,3307.16"/>
    </edge>
    <edge id=":belfast_28" function="internal">
        <lane id=":belfast_28_0" index="0" speed="10.00" length="57.24" shape="2448.96,3328.50 2469.42,3339.19 2483.64,3342.78 2491.63,3339.26 2493.39,3328.64"/>
    </edge>
    <edge id=":belfast_29" function="internal">
        <lane id=":belfast_29_0" index="0" speed="10.00" length="59.05" shape="2448.96,3328.50 2468.54,3340.60 2484.32,3351.15 2494.02,3359.11 2495.36,3363.41"/>
    </edge>
    <edge id=":belfast_30" function="internal">
        <lane id=":belfast_30_0" index="0" speed="8.78" length="36.18" shape="2448.32,3329.60 2460.06,3335.99 2464.40,3337.38 2461.34,3333.80 2450.87,3325.22"/>
    </edge>
    <edge id=":belfast_31" function="internal">
        <lane id=":belfast_31_0" index="0" speed="9.34" length="40.22" shape="2448.32,3329.60 2463.00,3337.51 2469.73,3339.78 2468.50,3336.41 2459.31,3327.41"/>
    </edge>
    <edge id=":belfast_32" function="internal">
        <lane id=":belfast_32_0" index="0" speed="10.00" length="50.68" shape="2448.32,3329.60 2464.86,3337.99 2472.24,3338.88 2470.45,3332.27 2459.51,3318.15"/>
    </edge>
    <edge id=":belfast_33" function="internal">
        <lane id=":belfast_33_0" index="0" speed="10.00" length="63.04" shape="2448.32,3329.60 2467.40,3338.21 2478.17,3337.34 2480.64,3326.99 2474.81,3307.16"/>
    </edge>
    <edge id=":belfast_34" function="internal">
        <lane id=":belfast_34_0" index="0" speed="10.00" length="57.71" shape="2448.32,3329.60 2469.06,3339.84 2483.48,3343.10 2491.59,3339.36 2493.39,3328.64"/>
    </edge>
    <edge id=":belfast_35" function="internal">
        <lane id=":belfast_35_0" index="0" speed="10.00" length="58.92" shape="2448.32,3329.60 2468.12,3341.25 2484.12,3351.45 2493.98,3359.18 2495.36,3363.41"/>
    </edge>
    <edge id=":belfast_36" function="internal">
        <lane id=":belfast_36_0" index="0" speed="8.88" length="37.02" shape="2448.17,3329.87 2460.22,3336.32 2464.68,3337.70 2461.57,3334.00 2450.87,3325.22"/>
    </edge>
    <edge id=":belfast_37" function="internal">
        <lane id=":belfast_37_0" index="0" speed="9.40" length="40.64" shape="2448.17,3329.87 2463.02,3337.75 2469.83,3339.97 2468.59,3336.52 2459.31,3327.41"/>
    </edge>
    <edge id=":belfast_38" function="internal">
        <lane id=":belfast_38_0" index="0" speed="10.00" length="50.91" shape="2448.17,3329.87 2464.81,3338.18 2472.25,3339.00 2470.48,3332.33 2459.51,3318.15"/>
    </edge>
    <edge id=":belfast_39" function="internal">
        <lane id=":belfast_39_0" index="0" speed="10.00" length="63.21" shape="2448.17,3329.87 2467.31,3338.37 2478.14,3337.42 2480.64,3327.02 2474.81,3307.16"/>
    </edge>
    <edge id=":belfast_40" function="internal">
        <lane id=":belfast_40_0" index="0" speed="10.00" length="57.83" shape="2448.17,3329.87 2468.97,3340.00 2483.45,3343.17 2491.59,3339.39 2493.39,3328.64"/>
    </edge>
    <edge id=":belfast_41" function="internal">
        <lane id=":belfast_41_0" index="0" speed="10.00" length="58.90" shape="2448.17,3329.87 2468.03,3341.41 2484.08,3351.52 2493.97,3359.19 2495.36,3363.41"/>
    </edge>
    <edge id=":belfast_42" function="internal">
        <lane id=":belfast_42_0" index="0" speed="9.17" length="36.12" shape="2470.12,3347.04 2474.05,3347.15 2472.16,3343.54 2464.43,3336.24 2450.87,3325.22"/>
    </edge>
    <edge id=":belfast_43" function="internal">
        <lane id=":belfast_43_0" index="0" speed="8.78" length="32.10" shape="2470.12,3347.04 2475.52,3347.55 2475.52,3344.45 2470.12,3337.74 2459.31,3327.41"/>
    </edge>
    <edge id=":belfast_44" function="internal">
        <lane id=":belfast_44_0" index="0" speed="10.00" length="41.50" shape="2470.12,3347.04 2476.69,3347.30 2477.11,3342.58 2471.38,3332.86 2459.51,3318.15"/>
    </edge>
    <edge id=":belfast_45" function="internal">
        <lane id=":belfast_45_0" index="0" speed="10.00" length="51.32" shape="2470.12,3347.04 2479.27,3347.08 2483.11,3340.45 2481.62,3327.14 2474.81,3307.16"/>
    </edge>
    <edge id=":belfast_46" function="internal">
        <lane id=":belfast_46_0" index="0" speed="10.00" length="41.22" shape="2469.24,3350.12 2480.85,3351.66 2488.75,3348.60 2492.93,3340.93 2493.39,3328.64"/>
    </edge>
    <edge id=":belfast_47" function="internal">
        <lane id=":belfast_47_0" index="0" speed="9.39" length="31.57" shape="2469.24,3350.12 2480.71,3353.62 2490.25,3357.21 2495.83,3360.58 2495.36,3363.41"/>
    </edge>
    <edge id=":belfast_48" function="internal">
        <lane id=":belfast_48_0" index="0" speed="10.00" length="49.05" shape="2482.85,3358.42 2484.79,3356.34 2480.11,3350.11 2468.80,3339.74 2450.87,3325.22"/>
    </edge>
    <edge id=":belfast_49" function="internal">
        <lane id=":belfast_49_0" index="0" speed="10.00" length="42.68" shape="2482.85,3358.42 2485.49,3356.47 2482.45,3350.66 2473.72,3340.97 2459.31,3327.41"/>
    </edge>
    <edge id=":belfast_50" function="internal">
        <lane id=":belfast_50_0" index="0" speed="10.00" length="50.13" shape="2482.85,3358.42 2485.75,3355.90 2482.84,3348.34 2474.09,3335.76 2459.51,3318.15"/>
    </edge>
    <edge id=":belfast_51" function="internal">
        <lane id=":belfast_51_0" index="0" speed="10.00" length="55.41" shape="2482.85,3358.42 2487.14,3355.21 2487.23,3345.60 2483.12,3329.58 2474.81,3307.16"/>
    </edge>
    <edge id=":belfast_52" function="internal">
        <lane id=":belfast_52_0" index="0" speed="10.00" length="35.12" shape="2482.85,3358.42 2488.53,3356.55 2492.18,3350.97 2493.80,3341.66 2493.39,3328.64"/>
    </edge>
    <edge id=":belfast_53" function="internal">
        <lane id=":belfast_53_0" index="0" speed="6.78" length="17.79" shape="2482.85,3358.42 2488.87,3358.66 2494.33,3359.49 2497.18,3361.03 2495.36,3363.41"/>
    </edge>
    <edge id=":bray_0" function="internal">
        <lane id=":bray_0_0" index="0" speed="10.00" length="49.72" shape="2442.32,1655.45 2444.27,1661.03 2441.95,1670.27 2435.36,1683.17 2424.49,1699.72"/>
    </edge>
    <edge id=":bray_1" function="internal">
        <lane id=":bray_1_0" index="0" speed="10.00" length="49.75" shape="2442.32,1655.45 2444.16,1660.99 2441.47,1670.04 2434.23,1682.63 2422.47,1698.74"/>
    </edge>
    <edge id=":bray_2" function="internal">