<?xml version="1.0" encoding="UTF-8"?>

<!-- generated on 2025-02-19 13:00:39 by Eclipse SUMO netconvert Version 1.18.0
<configuration xmlns:xsi="http://www.w3.org/2001/XMLSchema-instance" xsi:noNamespaceSchemaLocation="http://sumo.dlr.de/xsd/netconvertConfiguration.xsd">

    <input>
        <node-files value="nod.xml"/>
        <edge-files value="edge_xmls/09508.xml"/>
    </input>

    <output>
        <output-file value="networks/09508.net.xml"/>
    </output>

</configuration>
-->

<net version="1.16" junctionCornerDetail="5" limitTurnSpeed="5.50" xmlns:xsi="http://www.w3.org/2001/XMLSchema-instance" xsi:noNamespaceSchemaLocation="http://sumo.dlr.de/xsd/net_file.xsd">

    <location netOffset="-682.00,4368.00" convBoundary="0.00,0.00,2498.00,3881.00" origBoundary="682.00,-4368.00,3180.00,-487.00" projParameter="!"/>

    <edge id=":antrim_0" function="internal">
        <lane id=":antrim_0_0" index="0" speed="4.92" length="10.15" shape="2285.83,3451.92 2285.06,3453.52 2283.13,3452.75 2281.08,3450.45 2279.94,3447.45"/>
    </edge>
    <edge id=":antrim_1" function="internal">
        <lane id=":antrim_1_0" index="0" speed="5.58" length="13.34" shape="2285.83,3451.92 2286.18,3456.95 2286.59,3458.69 2287.07,3457.14 2287.61,3452.29"/>
    </edge>
    <edge id=":antrim_2" function="internal">
        <lane id=":antrim_2_0" index="0" speed="10.00" length="33.45" shape="2285.83,3451.92 2286.91,3466.71 2288.49,3476.78 2290.58,3482.13 2293.19,3482.75"/>
    </edge>
    <edge id=":antrim_3" function="internal">
        <lane id=":antrim_3_0" index="0" speed="10.00" length="43.96" shape="2285.83,3451.92 2286.13,3468.82 2285.22,3481.54 2283.11,3490.09 2279.78,3494.46"/>
    </edge>
    <edge id=":antrim_4" function="internal">
        <lane id=":antrim_4_0" index="0" speed="10.00" length="42.30" shape="2285.83,3451.92 2282.70,3460.46 2274.76,3470.37 2265.18,3478.02 2257.13,3479.80"/>
    </edge>
    <edge id=":antrim_5" function="internal">
        <lane id=":antrim_5_0" index="0" speed="10.00" length="39.26" shape="2285.83,3451.92 2282.87,3460.08 2275.35,3469.06 2266.27,3475.60 2258.64,3476.44"/>
    </edge>
    <edge id=":antrim_6" function="internal">
        <lane id=":antrim_6_0" index="0" speed="10.00" length="40.00" shape="2285.83,3451.92 2285.29,3464.51 2282.29,3474.80 2276.62,3479.91 2268.06,3476.99"/>
    </edge>
    <edge id=":antrim_7" function="internal">
        <lane id=":antrim_7_0" index="0" speed="8.84" length="29.82" shape="2285.83,3451.92 2284.36,3459.81 2280.29,3468.17 2275.09,3473.65 2270.20,3472.90"/>
    </edge>
    <edge id=":antrim_8" function="internal">
        <lane id=":antrim_8_0" index="0" speed="9.21" length="33.26" shape="2285.83,3451.92 2285.00,3462.47 2281.88,3471.35 2277.07,3475.56 2271.13,3472.11"/>
    </edge>
    <edge id=":antrim_9" function="internal">
        <lane id=":antrim_9_0" index="0" speed="6.33" length="17.21" shape="2285.83,3451.92 2284.71,3457.01 2281.79,3460.93 2278.45,3462.31 2276.09,3459.74"/>
    </edge>
    <edge id=":antrim_10" function="internal">
        <lane id=":antrim_10_0" index="0" speed="5.35" length="12.24" shape="2285.83,3451.92 2284.82,3454.02 2282.29,3453.50 2279.59,3451.14 2278.02,3447.74"/>
    </edge>
    <edge id=":antrim_11" function="internal">
        <lane id=":antrim_11_0" index="0" speed="7.23" length="23.41" shape="2283.13,3447.11 2284.42,3456.95 2285.60,3461.09 2286.66,3459.53 2287.61,3452.29"/>
    </edge>
    <edge id=":antrim_12" function="internal">
        <lane id=":antrim_12_0" index="0" speed="10.00" length="38.64" shape="2283.13,3447.11 2285.33,3464.04 2287.74,3475.63 2290.36,3481.86 2293.19,3482.75"/>
    </edge>
    <edge id=":antrim_13" function="internal">
        <lane id=":antrim_13_0" index="0" speed="10.00" length="48.53" shape="2283.13,3447.11 2284.63,3466.10 2284.58,3480.33 2282.96,3489.78 2279.78,3494.46"/>
    </edge>
    <edge id=":antrim_14" function="internal">
        <lane id=":antrim_14_0" index="0" speed="10.00" length="44.04" shape="2283.13,3447.11 2280.63,3456.39 2273.60,3467.95 2264.83,3477.26 2257.13,3479.80"/>
    </edge>
    <edge id=":antrim_15" function="internal">
        <lane id=":antrim_15_0" index="0" speed="10.00" length="40.82" shape="2283.13,3447.11 2280.81,3456.00 2274.19,3466.64 2265.92,3474.84 2258.64,3476.44"/>
    </edge>
    <edge id=":antrim_16" function="internal">
        <lane id=":antrim_16_0" index="0" speed="10.00" length="36.33" shape="2283.13,3447.11 2282.16,3456.28 2278.57,3467.42 2273.50,3475.88 2268.06,3476.99"/>
    </edge>
    <edge id=":antrim_17" function="internal">
        <lane id=":antrim_17_0" index="0" speed="9.06" length="32.20" shape="2283.13,3447.11 2282.32,3455.82 2279.18,3465.86 2274.78,3472.97 2270.20,3472.90"/>
    </edge>
    <edge id=":antrim_18" function="internal">
        <lane id=":antrim_18_0" index="0" speed="8.82" length="31.19" shape="2283.13,3447.11 2282.41,3455.74 2279.50,3465.58 2275.41,3472.43 2271.13,3472.11"/>
    </edge>
    <edge id=":antrim_19" function="internal">
        <lane id=":antrim_19_0" index="0" speed="6.64" length="19.56" shape="2283.13,3447.11 2282.69,3453.54 2280.74,3459.32 2278.23,3462.15 2276.09,3459.74"/>
    </edge>
    <edge id=":antrim_20" function="internal">
        <lane id=":antrim_20_0" index="0" speed="3.79" length="5.15" shape="2283.13,3447.11 2278.02,3447.74"/>
    </edge>
    <edge id=":antrim_21" function="internal">
        <lane id=":antrim_21_0" index="0" speed="3.65" length="4.67" shape="2283.13,3447.11 2282.46,3448.39 2281.71,3448.87 2280.87,3448.56 2279.94,3447.45"/>
    </edge>
    <edge id=":antrim_22" function="internal">
        <lane id=":antrim_22_0" index="0" speed="7.78" length="26.93" shape="2281.19,3447.32 2283.23,3458.26 2284.98,3462.73 2286.44,3460.74 2287.61,3452.29"/>
    </edge>
    <edge id=":antrim_23" function="internal">
        <lane id=":antrim_23_0" index="0" speed="10.00" length="39.03" shape="2281.19,3447.32 2284.20,3464.18 2287.20,3475.71 2290.20,3481.90 2293.19,3482.75"/>
    </edge>
    <edge id=":antrim_24" function="internal">
        <lane id=":antrim_24_0" index="0" speed="10.00" length="48.31" shape="2281.19,3447.32 2283.56,3466.21 2284.12,3480.36 2282.85,3489.78 2279.78,3494.46"/>
    </edge>
    <edge id=":antrim_25" function="internal">
        <lane id=":antrim_25_0" index="0" speed="10.00" length="42.82" shape="2281.19,3447.32 2279.17,3456.54 2272.79,3468.03 2264.59,3477.28 2257.13,3479.80"/>
    </edge>
    <edge id=":antrim_26" function="internal">
        <lane id=":antrim_26_0" index="0" speed="10.00" length="39.58" shape="2281.19,3447.32 2279.35,3456.16 2273.38,3466.72 2265.68,3474.87 2258.64,3476.44"/>
    </edge>
    <edge id=":antrim_27" function="internal">
        <lane id=":antrim_27_0" index="0" speed="9.80" length="35.42" shape="2281.19,3447.32 2280.70,3456.43 2277.76,3467.50 2273.26,3475.90 2268.06,3476.99"/>
    </edge>
    <edge id=":antrim_28" function="internal">
        <lane id=":antrim_28_0" index="0" speed="8.85" length="31.30" shape="2281.19,3447.32 2280.86,3455.97 2278.36,3465.94 2274.54,3472.99 2270.20,3472.90"/>
    </edge>
    <edge id=":antrim_29" function="internal">
        <lane id=":antrim_29_0" index="0" speed="8.62" length="30.31" shape="2281.19,3447.32 2280.95,3455.89 2278.69,3465.66 2275.17,3472.46 2271.13,3472.11"/>
    </edge>
    <edge id=":antrim_30" function="internal">
        <lane id=":antrim_30_0" index="0" speed="6.36" length="18.08" shape="2281.19,3447.32 2281.16,3453.38 2279.83,3458.99 2277.90,3461.87 2276.09,3459.74"/>
    </edge>
    <edge id=":antrim_31" function="internal">
        <lane id=":antrim_31_0" index="0" speed="7.54" length="27.06" shape="2281.19,3447.32 2279.57,3437.31 2278.82,3433.99 2278.95,3437.37 2279.94,3447.45"/>
    </edge>
    <edge id=":antrim_32" function="internal">
        <lane id=":antrim_32_0" index="0" speed="3.65" length="4.67" shape="2281.19,3447.32 2280.56,3448.61 2279.82,3449.12 2278.97,3448.83 2278.02,3447.74"/>
    </edge>
    <edge id=":antrim_33" function="internal">
        <lane id=":antrim_33_0" index="0" speed="4.67" length="8.93" shape="2280.50,3447.39 2279.90,3444.10 2279.61,3443.01 2279.62,3444.13 2279.94,3447.45"/>
    </edge>
    <edge id=":antrim_34" function="internal">
        <lane id=":antrim_34_0" index="0" speed="7.94" length="27.94" shape="2280.50,3447.39 2282.82,3458.62 2284.77,3463.18 2286.37,3461.07 2287.61,3452.29"/>
    </edge>
    <edge id=":antrim_35" function="internal">
        <lane id=":antrim_35_0" index="0" speed="10.00" length="39.19" shape="2280.50,3447.39 2283.80,3464.23 2287.01,3475.74 2290.14,3481.91 2293.19,3482.75"/>
    </edge>
    <edge id=":antrim_36" function="internal">
        <lane id=":antrim_36_0" index="0" speed="10.00" length="48.25" shape="2280.50,3447.39 2283.18,3466.25 2283.95,3480.38 2282.82,3489.78 2279.78,3494.46"/>
    </edge>
    <edge id=":antrim_37" function="internal">
        <lane id=":antrim_37_0" index="0" speed="10.00" length="42.40" shape="2280.50,3447.39 2278.65,3456.59 2272.50,3468.06 2264.50,3477.29 2257.13,3479.80"/>
    </edge>
    <edge id=":antrim_38" function="internal">
        <lane id=":antrim_38_0" index="0" speed="10.00" length="39.15" shape="2280.50,3447.39 2278.83,3456.21 2273.09,3466.75 2265.59,3474.88 2258.64,3476.44"/>
    </edge>
    <edge id=":antrim_39" function="internal">
        <lane id=":antrim_39_0" index="0" speed="9.72" length="35.11" shape="2280.50,3447.39 2280.18,3456.48 2277.47,3467.53 2273.17,3475.91 2268.06,3476.99"/>
    </edge>
    <edge id=":antrim_40" function="internal">
        <lane id=":antrim_40_0" index="0" speed="8.78" length="30.99" shape="2280.50,3447.39 2280.34,3456.03 2278.07,3465.97 2274.45,3473.00 2270.20,3472.90"/>
    </edge>
    <edge id=":antrim_41" function="internal">
        <lane id=":antrim_41_0" index="0" speed="8.55" length="29.95" shape="2280.50,3447.39 2280.42,3455.90 2278.38,3465.64 2275.06,3472.43 2271.13,3472.11"/>
    </edge>
    <edge id=":antrim_42" function="internal">
        <lane id=":antrim_42_0" index="0" speed="5.79" length="14.70" shape="2280.50,3447.39 2280.29,3451.73 2279.02,3456.76 2277.38,3460.19 2276.09,3459.74"/>
    </edge>
    <edge id=":antrim_43" function="internal">
        <lane id=":antrim_43_0" index="0" speed="10.00" length="151.86" shape="2280.50,3447.39 2270.74,3391.28 2267.07,3372.64 2269.50,3391.46 2278.02,3447.74"/>
    </edge>
    <edge id=":antrim_44" function="internal">
        <lane id=":antrim_44_0" index="0" speed="6.04" length="16.08" shape="2276.04,3447.77 2277.81,3453.60 2278.72,3455.54 2278.80,3453.59 2278.02,3447.74"/>
    </edge>
    <edge id=":antrim_45" function="internal">
        <lane id=":antrim_45_0" index="0" speed="7.22" length="23.54" shape="2276.04,3447.77 2278.66,3456.20 2280.19,3458.96 2280.62,3456.04 2279.94,3447.45"/>
    </edge>
    <edge id=":antrim_46" function="internal">
        <lane id=":antrim_46_0" index="0" speed="8.74" length="32.92" shape="2276.04,3447.77 2280.19,3460.20 2283.50,3465.09 2285.97,3462.45 2287.61,3452.29"/>
    </edge>
    <edge id=":antrim_47" function="internal">
        <lane id=":antrim_47_0" index="0" speed="10.00" length="40.56" shape="2276.04,3447.77 2281.21,3464.50 2285.79,3475.90 2289.78,3481.99 2293.19,3482.75"/>
    </edge>
    <edge id=":antrim_48" function="internal">
        <lane id=":antrim_48_0" index="0" speed="10.00" length="48.22" shape="2276.04,3447.77 2280.71,3466.44 2282.89,3480.44 2282.58,3489.78 2279.78,3494.46"/>
    </edge>
    <edge id=":antrim_49" function="internal">
        <lane id=":antrim_49_0" index="0" speed="10.00" length="39.92" shape="2276.04,3447.77 2275.27,3456.83 2270.61,3468.17 2263.93,3477.32 2257.13,3479.80"/>
    </edge>
    <edge id=":antrim_50" function="internal">
        <lane id=":antrim_50_0" index="0" speed="10.00" length="36.64" shape="2276.04,3447.77 2275.44,3456.44 2271.20,3466.86 2265.02,3474.91 2258.64,3476.44"/>
    </edge>
    <edge id=":antrim_51" function="internal">
        <lane id=":antrim_51_0" index="0" speed="9.29" length="33.44" shape="2276.04,3447.77 2276.79,3456.72 2275.58,3467.64 2272.60,3475.94 2268.06,3476.99"/>
    </edge>
    <edge id=":antrim_52" function="internal">
        <lane id=":antrim_52_0" index="0" speed="8.36" length="29.16" shape="2276.04,3447.77 2276.89,3456.11 2276.08,3465.90 2273.79,3472.90 2270.20,3472.90"/>
    </edge>
    <edge id=":antrim_53" function="internal">
        <lane id=":antrim_53_0" index="0" speed="8.12" length="27.98" shape="2276.04,3447.77 2276.92,3455.86 2276.31,3465.40 2274.33,3472.21 2271.13,3472.11"/>
    </edge>
    <edge id=":antrim_54" function="internal">
        <lane id=":antrim_54_0" index="0" speed="6.15" length="17.47" shape="2276.04,3447.77 2280.54,3450.75 2282.05,3453.73 2280.56,3456.73 2276.09,3459.74"/>
    </edge>
    <edge id=":antrim_55" function="internal">
        <lane id=":antrim_55_0" index="0" speed="3.41" length="3.62" shape="2275.68,3459.84 2276.22,3461.09 2276.47,3461.48 2276.43,3461.03 2276.09,3459.74"/>
    </edge>
    <edge id=":antrim_56" function="internal">
        <lane id=":antrim_56_0" index="0" speed="7.45" length="24.55" shape="2275.68,3459.84 2278.34,3465.17 2279.62,3464.93 2279.51,3459.12 2278.02,3447.74"/>
    </edge>
    <edge id=":antrim_57" function="internal">
        <lane id=":antrim_57_0" index="0" speed="7.85" length="27.03" shape="2275.68,3459.84 2278.77,3465.91 2280.52,3465.87 2280.91,3459.72 2279.94,3447.45"/>
    </edge>
    <edge id=":antrim_58" function="internal">
        <lane id=":antrim_58_0" index="0" speed="8.60" length="30.34" shape="2275.68,3459.84 2279.91,3467.81 2283.31,3469.20 2285.88,3464.03 2287.61,3452.29"/>
    </edge>
    <edge id=":antrim_59" function="internal">
        <lane id=":antrim_59_0" index="0" speed="10.00" length="30.68" shape="2275.68,3459.84 2280.93,3471.33 2285.60,3478.98 2289.69,3482.79 2293.19,3482.75"/>
    </edge>
    <edge id=":antrim_60" function="internal">
        <lane id=":antrim_60_0" index="0" speed="10.00" length="36.66" shape="2275.68,3459.84 2280.56,3473.20 2282.87,3483.42 2282.61,3490.51 2279.78,3494.46"/>
    </edge>
    <edge id=":antrim_61" function="internal">
        <lane id=":antrim_61_0" index="0" speed="9.33" length="30.96" shape="2275.68,3459.84 2275.38,3466.87 2270.80,3474.08 2264.01,3479.16 2257.13,3479.80"/>
    </edge>
    <edge id=":antrim_62" function="internal">
        <lane id=":antrim_62_0" index="0" speed="8.56" length="27.36" shape="2275.68,3459.84 2275.28,3466.04 2270.93,3472.27 2264.69,3476.43 2258.64,3476.44"/>
    </edge>
    <edge id=":antrim_63" function="internal">
        <lane id=":antrim_63_0" index="0" speed="7.39" length="21.57" shape="2275.68,3459.84 2276.19,3465.50 2274.61,3472.03 2271.66,3476.75 2268.06,3476.99"/>
    </edge>
    <edge id=":antrim_64" function="internal">
        <lane id=":antrim_64_0" index="0" speed="6.27" length="16.30" shape="2275.68,3459.84 2276.01,3464.23 2274.76,3469.35 2272.60,3472.99 2270.20,3472.90"/>
    </edge>
    <edge id=":antrim_65" function="internal">
        <lane id=":antrim_65_0" index="0" speed="5.99" length="15.02" shape="2275.68,3459.84 2276.04,3463.95 2275.02,3468.79 2273.19,3472.22 2271.13,3472.11"/>
    </edge>
    <edge id=":antrim_66" function="internal">
        <lane id=":antrim_66_0" index="0" speed="6.73" length="18.95" shape="2274.28,3469.45 2277.25,3472.93 2278.54,3472.47 2278.15,3468.07 2276.09,3459.74"/>
    </edge>
    <edge id=":antrim_67" function="internal">
        <lane id=":antrim_67_0" index="0" speed="8.65" length="31.01" shape="2274.28,3469.45 2277.92,3472.97 2279.76,3470.52 2279.79,3462.12 2278.02,3447.74"/>
    </edge>
    <edge id=":antrim_68" function="internal">
        <lane id=":antrim_68_0" index="0" speed="8.86" length="32.02" shape="2274.28,3469.45 2278.18,3473.15 2280.43,3470.72 2281.02,3462.15 2279.94,3447.45"/>
    </edge>
    <edge id=":antrim_69" function="internal">
        <lane id=":antrim_69_0" index="0" speed="9.18" length="31.71" shape="2274.28,3469.45 2279.05,3474.01 2282.87,3472.67 2285.72,3465.43 2287.61,3452.29"/>
    </edge>
    <edge id=":antrim_70" function="internal">
        <lane id=":antrim_70_0" index="0" speed="10.00" length="24.82" shape="2274.28,3469.45 2280.02,3476.81 2285.09,3481.48 2289.48,3483.46 2293.19,3482.75"/>
    </edge>
    <edge id=":antrim_71" function="internal">
        <lane id=":antrim_71_0" index="0" speed="10.00" length="26.74" shape="2274.28,3469.45 2277.80,3475.96 2280.46,3483.65 2281.40,3490.49 2279.78,3494.46"/>
    </edge>
    <edge id=":antrim_72" function="internal">
        <lane id=":antrim_72_0" index="0" speed="7.74" length="23.04" shape="2274.28,3469.45 2274.09,3473.71 2269.48,3477.56 2262.98,3479.95 2257.13,3479.80"/>
    </edge>
    <edge id=":antrim_73" function="internal">
        <lane id=":antrim_73_0" index="0" speed="7.05" length="19.78" shape="2274.28,3469.45 2273.92,3472.89 2269.58,3475.69 2263.68,3477.12 2258.64,3476.44"/>
    </edge>
    <edge id=":antrim_74" function="internal">
        <lane id=":antrim_74_0" index="0" speed="5.37" length="11.47" shape="2274.28,3469.45 2274.45,3472.04 2272.83,3474.97 2270.38,3477.03 2268.06,3476.99"/>
    </edge>
    <edge id=":antrim_75" function="internal">
        <lane id=":antrim_75_0" index="0" speed="3.52" length="4.12" shape="2274.28,3469.45 2271.13,3472.11"/>
    </edge>
    <edge id=":antrim_76" function="internal">
        <lane id=":antrim_76_0" index="0" speed="4.45" length="7.79" shape="2274.28,3469.45 2274.55,3471.84 2273.96,3473.21 2272.51,3473.56 2270.20,3472.90"/>
    </edge>
    <edge id=":antrim_77" function="internal">
        <lane id=":antrim_77_0" index="0" speed="7.10" length="20.77" shape="2273.23,3470.34 2276.81,3473.96 2278.48,3473.40 2278.24,3468.66 2276.09,3459.74"/>
    </edge>
    <edge id=":antrim_78" function="internal">
        <lane id=":antrim_78_0" index="0" speed="8.93" length="32.32" shape="2273.23,3470.34 2277.38,3473.78 2279.56,3471.16 2279.77,3462.48 2278.02,3447.74"/>
    </edge>
    <edge id=":antrim_79" function="internal">
        <lane id=":antrim_79_0" index="0" speed="9.13" length="33.25" shape="2273.23,3470.34 2277.62,3473.91 2280.20,3471.29 2280.98,3462.47 2279.94,3447.45"/>
    </edge>
    <edge id=":antrim_80" function="internal">
        <lane id=":antrim_80_0" index="0" speed="9.45" length="32.74" shape="2273.23,3470.34 2278.45,3474.65 2282.59,3473.09 2285.64,3465.63 2287.61,3452.29"/>
    </edge>
    <edge id=":antrim_81" function="internal">
        <lane id=":antrim_81_0" index="0" speed="10.00" length="25.10" shape="2273.23,3470.34 2279.41,3477.32 2284.79,3481.72 2289.39,3483.53 2293.19,3482.75"/>
    </edge>
    <edge id=":antrim_82" function="internal">
        <lane id=":antrim_82_0" index="0" speed="10.00" length="28.01" shape="2273.23,3470.34 2278.91,3478.11 2282.44,3484.91 2283.00,3490.46 2279.78,3494.46"/>
    </edge>
    <edge id=":antrim_83" function="internal">
        <lane id=":antrim_83_0" index="0" speed="7.41" length="21.52" shape="2273.23,3470.34 2273.17,3474.18 2268.81,3477.72 2262.65,3479.93 2257.13,3479.80"/>
    </edge>
    <edge id=":antrim_84" function="internal">
        <lane id=":antrim_84_0" index="0" speed="6.72" length="18.28" shape="2273.23,3470.34 2272.99,3473.38 2268.91,3475.85 2263.35,3477.10 2258.64,3476.44"/>
    </edge>
    <edge id=":antrim_85" function="internal">
        <lane id=":antrim_85_0" index="0" speed="5.00" length="9.91" shape="2273.23,3470.34 2273.47,3472.55 2272.13,3475.14 2270.05,3476.99 2268.06,3476.99"/>
    </edge>
    <edge id=":antrim_86" function="internal">
        <lane id=":antrim_86_0" index="0" speed="3.47" length="3.97" shape="2273.23,3470.34 2270.20,3472.90"/>
    </edge>
    <edge id=":antrim_87" function="internal">
        <lane id=":antrim_87_0" index="0" speed="3.48" length="4.01" shape="2273.23,3470.34 2273.37,3471.57 2273.07,3472.27 2272.32,3472.45 2271.13,3472.11"/>
    </edge>
    <edge id=":antrim_88" function="internal">
        <lane id=":antrim_88_0" index="0" speed="7.87" length="28.82" shape="2273.87,3469.79 2266.18,3462.28 2263.17,3460.17 2264.82,3463.44 2271.13,3472.11"/>
    </edge>
    <edge id=":antrim_89" function="internal">
        <lane id=":antrim_89_0" index="0" speed="6.52" length="16.47" shape="2273.87,3469.79 2276.67,3471.87 2277.97,3470.89 2277.78,3466.85 2276.09,3459.74"/>
    </edge>
    <edge id=":antrim_90" function="internal">
        <lane id=":antrim_90_0" index="0" speed="8.65" length="28.89" shape="2273.87,3469.79 2277.49,3471.84 2279.39,3468.84 2279.56,3460.81 2278.02,3447.74"/>
    </edge>
    <edge id=":antrim_91" function="internal">
        <lane id=":antrim_91_0" index="0" speed="8.89" length="29.97" shape="2273.87,3469.79 2277.81,3472.03 2280.14,3469.05 2280.85,3460.86 2279.94,3447.45"/>
    </edge>
    <edge id=":antrim_92" function="internal">
        <lane id=":antrim_92_0" index="0" speed="9.28" length="29.92" shape="2273.87,3469.79 2278.93,3472.98 2282.91,3471.12 2285.80,3464.23 2287.61,3452.29"/>
    </edge>
    <edge id=":antrim_93" function="internal">
        <lane id=":antrim_93_0" index="0" speed="10.00" length="24.00" shape="2273.87,3469.79 2280.77,3476.41 2286.29,3480.77 2290.43,3482.89 2293.19,3482.75"/>
    </edge>
    <edge id=":antrim_94" function="internal">
        <lane id=":antrim_94_0" index="0" speed="10.00" length="27.43" shape="2271.42,3471.87 2277.71,3478.83 2281.87,3485.15 2282.89,3490.48 2279.78,3494.46"/>
    </edge>
    <edge id=":antrim_95" function="internal">
        <lane id=":antrim_95_0" index="0" speed="7.37" length="22.19" shape="2271.42,3471.87 2273.07,3476.29 2269.85,3479.47 2263.84,3480.82 2257.13,3479.80"/>
    </edge>
    <edge id=":antrim_96" function="internal">
        <lane id=":antrim_96_0" index="0" speed="6.16" length="15.66" shape="2271.42,3471.87 2271.32,3474.24 2267.72,3476.15 2262.77,3477.07 2258.64,3476.44"/>
    </edge>
    <edge id=":antrim_97" function="internal">
        <lane id=":antrim_97_0" index="0" speed="6.95" length="22.43" shape="2271.42,3471.87 2265.46,3465.94 2263.27,3464.13 2264.85,3466.45 2270.20,3472.90"/>
    </edge>
    <edge id=":antrim_98" function="internal">
        <lane id=":antrim_98_0" index="0" speed="4.72" length="8.95" shape="2271.42,3471.87 2272.50,3474.41 2272.30,3476.11 2270.82,3476.97 2268.06,3476.99"/>
    </edge>
    <edge id=":athlone_0" function="internal">
        <lane id=":athlone_0_0" index="0" speed="10.00" length="30.38" shape="1255.79,1989.51 1254.33,1978.60 1251.24,1971.86 1246.50,1969.27 1240.13,1970.85"/>
    </edge>
    <edge id=":athlone_1" function="internal">
        <lane id=":athlone_1_0" index="0" speed="10.00" length="34.17" shape="1255.79,1989.51 1255.10,1982.69 1253.55,1972.31 1251.38,1962.21 1248.81,1956.24"/>
    </edge>
    <edge id=":athlone_2" function="internal">
        <lane id=":athlone_2_0" index="0" speed="10.00" length="31.75" shape="1255.79,1989.51 1255.35,1984.44 1253.89,1977.30 1250.65,1968.96 1244.88,1960.28"/>
    </edge>
    <edge id=":athlone_3" function="internal">
        <lane id=":athlone_3_0" index="0" speed="10.00" length="62.17" shape="1255.79,1989.51 1257.06,1979.18 1260.38,1960.65 1264.49,1941.33 1268.12,1928.65"/>
    </edge>
    <edge id=":athlone_4" function="internal">
        <lane id=":athlone_4_0" index="0" speed="10.00" length="40.41" shape="1255.79,1989.51 1256.08,1976.19 1258.41,1965.82 1262.78,1958.37 1269.18,1953.86"/>
    </edge>
    <edge id=":athlone_5" function="internal">
        <lane id=":athlone_5_0" index="0" speed="10.00" length="41.62" shape="1255.79,1989.51 1258.67,1980.94 1266.70,1980.05 1277.06,1984.87 1286.93,1993.43"/>
    </edge>
    <edge id=":athlone_6" function="internal">
        <lane id=":athlone_6_0" index="0" speed="8.07" length="26.50" shape="1255.79,1989.51 1257.84,1983.85 1263.28,1982.66 1269.83,1985.25 1275.24,1990.96"/>
    </edge>
    <edge id=":athlone_7" function="internal">
        <lane id=":athlone_7_0" index="0" speed="5.97" length="15.60" shape="1255.79,1989.51 1256.81,1987.16 1259.45,1988.68 1262.36,1992.58 1264.20,1997.36"/>
    </edge>
    <edge id=":athlone_8" function="internal">
        <lane id=":athlone_8_0" index="0" speed="3.65" length="4.67" shape="1255.79,1989.51 1256.53,1988.27 1257.31,1987.83 1258.13,1988.19 1258.98,1989.35"/>
    </edge>
    <edge id=":athlone_9" function="internal">
        <lane id=":athlone_9_0" index="0" speed="6.80" length="19.24" shape="1269.71,1994.17 1266.05,1988.66 1263.91,1987.36 1263.29,1990.26 1264.20,1997.36"/>
    </edge>
    <edge id=":athlone_10" function="internal">
        <lane id=":athlone_10_0" index="0" speed="7.31" length="21.42" shape="1269.71,1994.17 1264.74,1986.47 1261.30,1983.10 1259.38,1984.06 1258.98,1989.35"/>
    </edge>
    <edge id=":athlone_11" function="internal">
        <lane id=":athlone_11_0" index="0" speed="10.00" length="40.71" shape="1269.71,1994.17 1261.41,1981.61 1253.72,1973.53 1246.62,1969.95 1240.13,1970.85"/>
    </edge>
    <edge id=":athlone_12" function="internal">
        <lane id=":athlone_12_0" index="0" speed="10.00" length="43.33" shape="1269.71,1994.17 1264.83,1985.08 1258.72,1973.27 1252.88,1962.42 1248.81,1956.24"/>
    </edge>
    <edge id=":athlone_13" function="internal">
        <lane id=":athlone_13_0" index="0" speed="10.00" length="42.86" shape="1269.71,1994.17 1265.08,1986.83 1259.06,1978.26 1252.15,1969.17 1244.88,1960.28"/>
        <lane id=":athlone_13_1" index="1" speed="10.00" length="42.86" shape="1272.47,1992.56 1267.76,1985.12 1261.56,1976.31 1254.48,1966.98 1247.12,1957.97"/>
        <lane id=":athlone_13_2" index="2" speed="10.00" length="42.86" shape="1272.47,1992.56 1268.11,1984.76 1262.68,1975.16 1256.37,1965.04 1249.37,1955.68"/>
    </edge>
    <edge id=":athlone_16" function="internal">
        <lane id=":athlone_16_0" index="0" speed="10.00" length="66.51" shape="1272.47,1992.56 1265.35,1976.77 1262.25,1960.86 1263.17,1944.81 1268.12,1928.65"/>
    </edge>
    <edge id=":athlone_17" function="internal">
        <lane id=":athlone_17_0" index="0" speed="10.00" length="39.89" shape="1272.47,1992.56 1269.33,1983.58 1267.16,1971.15 1266.82,1959.74 1269.18,1953.86"/>
    </edge>
    <edge id=":athlone_18" function="internal">
        <lane id=":athlone_18_0" index="0" speed="6.71" length="19.80" shape="1272.47,1992.56 1272.28,1988.92 1276.18,1988.13 1281.85,1989.78 1286.93,1993.43"/>
    </edge>
    <edge id=":athlone_19" function="internal">
        <lane id=":athlone_19_0" index="0" speed="3.65" length="4.67" shape="1272.47,1992.56 1272.56,1991.12 1273.06,1990.38 1273.95,1990.32 1275.24,1990.96"/>
    </edge>
    <edge id=":athlone_20" function="internal">
        <lane id=":athlone_20_0" index="0" speed="6.72" length="19.49" shape="1289.67,1989.57 1283.71,1985.90 1281.27,1985.32 1282.34,1987.83 1286.93,1993.43"/>
    </edge>
    <edge id=":athlone_21" function="internal">
        <lane id=":athlone_21_0" index="0" speed="7.24" length="21.20" shape="1289.67,1989.57 1281.82,1984.74 1277.26,1983.09 1275.99,1984.63 1278.01,1989.35"/>
    </edge>
    <edge id=":athlone_22" function="internal">
        <lane id=":athlone_22_0" index="0" speed="10.00" length="41.33" shape="1289.67,1989.57 1276.59,1982.29 1267.99,1981.16 1263.86,1986.18 1264.20,1997.36"/>
    </edge>
    <edge id=":athlone_23" function="internal">
        <lane id=":athlone_23_0" index="0" speed="10.00" length="40.38" shape="1289.67,1989.57 1275.86,1981.51 1266.14,1978.79 1260.51,1981.40 1258.98,1989.35"/>
    </edge>
    <edge id=":athlone_24" function="internal">
        <lane id=":athlone_24_0" index="0" speed="10.00" length="54.50" shape="1289.67,1989.57 1272.68,1979.00 1258.76,1972.36 1247.91,1969.64 1240.13,1970.85"/>
    </edge>
    <edge id=":athlone_25" function="internal">
        <lane id=":athlone_25_0" index="0" speed="10.00" length="52.62" shape="1291.52,1986.96 1281.86,1980.29 1268.41,1970.81 1255.83,1961.72 1248.81,1956.24"/>
    </edge>
    <edge id=":athlone_26" function="internal">
        <lane id=":athlone_26_0" index="0" speed="10.00" length="53.20" shape="1291.52,1986.96 1282.46,1981.67 1269.86,1974.65 1256.99,1966.53 1247.12,1957.97"/>
    </edge>
    <edge id=":athlone_27" function="internal">
        <lane id=":athlone_27_0" index="0" speed="10.00" length="68.86" shape="1291.52,1986.96 1275.99,1973.80 1266.91,1959.69 1264.29,1944.64 1268.12,1928.65"/>
    </edge>
    <edge id=":athlone_28" function="internal">
        <lane id=":athlone_28_0" index="0" speed="10.00" length="41.11" shape="1291.52,1986.96 1284.15,1980.01 1275.52,1969.39 1269.30,1959.29 1269.18,1953.86"/>
    </edge>
    <edge id=":athlone_29" function="internal">
        <lane id=":athlone_29_0" index="0" speed="8.69" length="29.96" shape="1277.49,1972.21 1273.34,1972.17 1273.53,1975.69 1278.06,1982.78 1286.93,1993.43"/>
    </edge>
    <edge id=":athlone_30" function="internal">
        <lane id=":athlone_30_0" index="0" speed="8.03" length="23.11" shape="1277.49,1972.21 1273.27,1972.05 1271.95,1974.86 1273.53,1980.62 1278.01,1989.35"/>
    </edge>
    <edge id=":athlone_31" function="internal">
        <lane id=":athlone_31_0" index="0" speed="10.00" length="36.04" shape="1277.49,1972.21 1269.60,1971.74 1264.76,1975.78 1262.96,1984.32 1264.20,1997.36"/>
    </edge>
    <edge id=":athlone_32" function="internal">
        <lane id=":athlone_32_0" index="0" speed="10.00" length="31.58" shape="1277.49,1972.21 1268.98,1971.15 1263.05,1973.66 1259.72,1979.72 1258.98,1989.35"/>
    </edge>
    <edge id=":athlone_33" function="internal">
        <lane id=":athlone_33_0" index="0" speed="10.00" length="37.65" shape="1277.49,1972.21 1268.23,1970.51 1256.88,1969.64 1246.49,1969.72 1240.13,1970.85"/>
    </edge>
    <edge id=":athlone_34" function="internal">
        <lane id=":athlone_34_0" index="0" speed="10.00" length="32.38" shape="1278.38,1969.14 1270.21,1966.44 1261.34,1962.95 1253.59,1959.34 1248.81,1956.24"/>
    </edge>