<?xml version="1.0" encoding="UTF-8"?>

<!-- generated on 2025-02-19 13:00:35 by Eclipse SUMO netconvert Version 1.18.0
<configuration xmlns:xsi="http://www.w3.org/2001/XMLSchema-instance" xsi:noNamespaceSchemaLocation="http://sumo.dlr.de/xsd/netconvertConfiguration.xsd">

    <input>
        <node-files value="nod.xml"/>
        <edge-files value="edge_xmls/09503.xml"/>
    </input>

    <output>
        <output-file value="networks/09503.net.xml"/>
    </output>

</configuration>
-->

<net version="1.16" junctionCornerDetail="5" limitTurnSpeed="5.50" xmlns:xsi="http://www.w3.org/2001/XMLSchema-instance" xsi:noNamespaceSchemaLocation="http://sumo.dlr.de/xsd/net_file.xsd">

    <location netOffset="-682.00,4368.00" convBoundary="0.00,0.00,2498.00,3881.00" origBoundary="682.00,-4368.00,3180.00,-487.00" projParameter="!"/>

    <edge id=":antrim_0" function="internal">
        <lane id=":antrim_0_0" index="0" speed="10.00" length="38.64" shape="2289.39,3468.61 2286.55,3478.75 2280.56,3483.68 2271.80,3484.21 2260.65,3481.13"/>
    </edge>
    <edge id=":antrim_1" function="internal">
        <lane id=":antrim_1_0" index="0" speed="9.32" length="29.83" shape="2289.39,3468.61 2285.94,3474.02 2278.63,3476.96 2270.28,3477.12 2263.71,3474.20"/>
    </edge>
    <edge id=":antrim_2" function="internal">
        <lane id=":antrim_2_0" index="0" speed="10.00" length="40.98" shape="2289.39,3468.61 2284.39,3470.51 2273.70,3465.96 2262.10,3458.52 2254.41,3451.77"/>
    </edge>
    <edge id=":antrim_3" function="internal">
        <lane id=":antrim_3_0" index="0" speed="10.00" length="50.00" shape="2289.39,3468.61 2285.06,3476.98 2276.28,3474.18 2265.32,3464.37 2254.48,3451.73"/>
    </edge>
    <edge id=":antrim_4" function="internal">
        <lane id=":antrim_4_0" index="0" speed="10.00" length="40.53" shape="2289.39,3468.61 2284.50,3470.52 2274.07,3465.81 2262.77,3458.17 2255.27,3451.27"/>
    </edge>
    <edge id=":antrim_5" function="internal">
        <lane id=":antrim_5_0" index="0" speed="10.00" length="42.78" shape="2289.39,3468.61 2285.70,3475.74 2278.40,3472.78 2269.65,3463.56 2261.57,3451.93"/>
    </edge>
    <edge id=":antrim_6" function="internal">
        <lane id=":antrim_6_0" index="0" speed="7.98" length="26.85" shape="2289.39,3468.61 2287.04,3472.79 2282.55,3470.37 2277.63,3463.89 2273.95,3455.87"/>
    </edge>
    <edge id=":antrim_7" function="internal">
        <lane id=":antrim_7_0" index="0" speed="10.00" length="46.07" shape="2283.76,3453.04 2283.71,3466.91 2280.10,3477.30 2272.53,3482.58 2260.65,3481.13"/>
    </edge>
    <edge id=":antrim_8" function="internal">
        <lane id=":antrim_8_0" index="0" speed="9.56" length="34.53" shape="2283.76,3453.04 2282.95,3463.32 2278.90,3471.19 2272.61,3474.50 2265.09,3471.08"/>
    </edge>
    <edge id=":antrim_9" function="internal">
        <lane id=":antrim_9_0" index="0" speed="9.11" length="33.11" shape="2283.76,3453.04 2280.35,3457.55 2271.51,3458.33 2261.46,3456.15 2254.41,3451.77"/>
    </edge>
    <edge id=":antrim_10" function="internal">
        <lane id=":antrim_10_0" index="0" speed="9.10" length="33.05" shape="2283.76,3453.04 2280.36,3457.54 2271.54,3458.31 2261.51,3456.12 2254.48,3451.73"/>
    </edge>
    <edge id=":antrim_11" function="internal">
        <lane id=":antrim_11_0" index="0" speed="8.98" length="32.38" shape="2283.76,3453.04 2280.47,3457.49 2271.89,3458.12 2262.12,3455.77 2255.27,3451.27"/>
    </edge>
    <edge id=":antrim_12" function="internal">
        <lane id=":antrim_12_0" index="0" speed="8.52" length="30.27" shape="2283.76,3453.04 2281.75,3459.53 2275.56,3461.04 2267.93,3458.28 2261.57,3451.93"/>
    </edge>
    <edge id=":antrim_13" function="internal">
        <lane id=":antrim_13_0" index="0" speed="5.91" length="14.90" shape="2283.76,3453.04 2282.37,3457.42 2280.27,3459.36 2277.47,3458.84 2273.95,3455.87"/>
    </edge>
    <edge id=":antrim_14" function="internal">
        <lane id=":antrim_14_0" index="0" speed="10.00" length="56.21" shape="2264.64,3450.09 2252.37,3432.95 2247.77,3427.55 2250.84,3433.87 2261.57,3451.93"/>
    </edge>
    <edge id=":antrim_15" function="internal">
        <lane id=":antrim_15_0" index="0" speed="6.97" length="20.67" shape="2264.64,3450.09 2270.32,3457.74 2273.76,3461.25 2274.97,3460.63 2273.95,3455.87"/>
    </edge>
    <edge id=":antrim_16" function="internal">
        <lane id=":antrim_16_0" index="0" speed="9.38" length="34.67" shape="2264.64,3450.09 2267.33,3458.46 2267.67,3469.52 2265.49,3478.63 2260.65,3481.13"/>
    </edge>
    <edge id=":antrim_17" function="internal">
        <lane id=":antrim_17_0" index="0" speed="7.02" length="21.92" shape="2261.88,3451.74 2264.63,3457.66 2266.66,3465.12 2267.10,3470.73 2265.09,3471.08"/>
    </edge>
    <edge id=":antrim_18" function="internal">
        <lane id=":antrim_18_0" index="0" speed="4.36" length="7.48" shape="2261.88,3451.74 2254.41,3451.77"/>
    </edge>
    <edge id=":antrim_19" function="internal">
        <lane id=":antrim_19_0" index="0" speed="4.34" length="7.41" shape="2261.88,3451.74 2254.48,3451.73"/>
    </edge>
    <edge id=":antrim_20" function="internal">
        <lane id=":antrim_20_0" index="0" speed="4.81" length="9.69" shape="2261.88,3451.74 2260.05,3454.10 2258.34,3454.81 2256.75,3453.87 2255.27,3451.27"/>
    </edge>
    <edge id=":antrim_21" function="internal">
        <lane id=":antrim_21_0" index="0" speed="10.00" length="111.64" shape="2259.57,3453.12 2232.80,3419.62 2223.16,3408.15 2230.65,3418.70 2255.27,3451.27"/>
    </edge>
    <edge id=":antrim_22" function="internal">
        <lane id=":antrim_22_0" index="0" speed="6.48" length="18.87" shape="2259.57,3453.12 2264.07,3458.57 2265.91,3460.18 2265.07,3457.97 2261.57,3451.93"/>
    </edge>
    <edge id=":antrim_23" function="internal">
        <lane id=":antrim_23_0" index="0" speed="8.85" length="33.73" shape="2259.57,3453.12 2268.84,3463.85 2274.33,3467.88 2276.04,3465.22 2273.95,3455.87"/>
    </edge>
    <edge id=":antrim_24" function="internal">
        <lane id=":antrim_24_0" index="0" speed="8.87" length="31.59" shape="2259.57,3453.12 2263.24,3460.88 2265.30,3470.91 2264.76,3479.06 2260.65,3481.13"/>
    </edge>
    <edge id=":antrim_25" function="internal">
        <lane id=":antrim_25_0" index="0" speed="7.38" length="25.01" shape="2259.57,3453.12 2264.23,3460.40 2267.58,3467.88 2268.31,3472.48 2265.09,3471.08"/>
    </edge>
    <edge id=":antrim_26" function="internal">
        <lane id=":antrim_26_0" index="0" speed="3.81" length="5.28" shape="2259.57,3453.12 2254.48,3451.73"/>
    </edge>
    <edge id=":antrim_27" function="internal">
        <lane id=":antrim_27_0" index="0" speed="4.39" length="7.79" shape="2259.57,3453.12 2257.77,3454.72 2256.31,3455.03 2255.19,3454.04 2254.41,3451.77"/>
    </edge>
    <edge id=":antrim_28" function="internal">
        <lane id=":antrim_28_0" index="0" speed="4.93" length="10.25" shape="2255.53,3450.72 2253.06,3447.87 2252.20,3447.01 2252.93,3448.14 2255.27,3451.27"/>
    </edge>
    <edge id=":antrim_29" function="internal">
        <lane id=":antrim_29_0" index="0" speed="7.66" length="26.83" shape="2255.53,3450.72 2262.89,3458.99 2266.34,3461.95 2265.90,3459.60 2261.57,3451.93"/>
    </edge>
    <edge id=":antrim_30" function="internal">
        <lane id=":antrim_30_0" index="0" speed="9.39" length="37.75" shape="2255.53,3450.72 2266.66,3462.76 2273.44,3467.63 2275.87,3465.34 2273.95,3455.87"/>
    </edge>
    <edge id=":antrim_31" function="internal">
        <lane id=":antrim_31_0" index="0" speed="9.97" length="41.06" shape="2255.53,3450.72 2263.27,3461.83 2268.26,3473.09 2268.17,3480.77 2260.65,3481.13"/>
    </edge>
    <edge id=":antrim_32" function="internal">
        <lane id=":antrim_32_0" index="0" speed="7.28" length="24.55" shape="2255.53,3450.72 2259.84,3457.04 2264.16,3464.99 2266.56,3470.90 2265.09,3471.08"/>
    </edge>
    <edge id=":antrim_33" function="internal">
        <lane id=":antrim_33_0" index="0" speed="9.59" length="45.30" shape="2255.53,3450.72 2244.48,3437.87 2240.60,3433.76 2243.91,3438.39 2254.41,3451.77"/>
    </edge>
    <edge id=":antrim_34" function="internal">
        <lane id=":antrim_34_0" index="0" speed="2.92" length="2.14" shape="2255.53,3450.72 2255.65,3451.37 2255.51,3451.75 2255.12,3451.87 2254.48,3451.73"/>
    </edge>
    <edge id=":antrim_35" function="internal">
        <lane id=":antrim_35_0" index="0" speed="7.19" length="23.66" shape="2252.68,3452.78 2259.08,3459.03 2261.64,3460.87 2260.37,3458.28 2255.27,3451.27"/>
    </edge>
    <edge id=":antrim_36" function="internal">
        <lane id=":antrim_36_0" index="0" speed="8.64" length="33.85" shape="2252.68,3452.78 2262.51,3462.17 2267.27,3465.16 2266.95,3461.75 2261.57,3451.93"/>
    </edge>
    <edge id=":antrim_37" function="internal">
        <lane id=":antrim_37_0" index="0" speed="9.81" length="40.19" shape="2252.68,3452.78 2265.19,3464.36 2272.90,3468.73 2275.83,3465.90 2273.95,3455.87"/>
    </edge>
    <edge id=":antrim_38" function="internal">
        <lane id=":antrim_38_0" index="0" speed="9.63" length="39.27" shape="2252.68,3452.78 2260.91,3462.94 2266.70,3473.50 2267.47,3480.78 2260.65,3481.13"/>
    </edge>
    <edge id=":antrim_39" function="internal">
        <lane id=":antrim_39_0" index="0" speed="6.45" length="18.75" shape="2252.68,3452.78 2257.74,3457.75 2259.71,3459.25 2258.60,3457.25 2254.41,3451.77"/>
    </edge>
    <edge id=":antrim_40" function="internal">
        <lane id=":antrim_40_0" index="0" speed="6.52" length="19.21" shape="2252.68,3452.78 2257.86,3457.87 2259.89,3459.40 2258.76,3457.35 2254.48,3451.73"/>
    </edge>
    <edge id=":antrim_41" function="internal">
        <lane id=":antrim_41_0" index="0" speed="8.17" length="32.30" shape="2252.68,3452.78 2262.65,3452.70 2268.04,3455.72 2268.85,3461.85 2265.09,3471.08"/>
    </edge>
    <edge id=":antrim_42" function="internal">
        <lane id=":antrim_42_0" index="0" speed="3.84" length="4.85" shape="2263.15,3475.46 2264.69,3476.15 2265.30,3476.18 2264.97,3475.52 2263.71,3474.20"/>
    </edge>
    <edge id=":antrim_43" function="internal">
        <lane id=":antrim_43_0" index="0" speed="9.26" length="36.29" shape="2263.15,3475.46 2268.98,3477.25 2269.46,3473.90 2264.60,3465.41 2254.41,3451.77"/>
    </edge>
    <edge id=":antrim_44" function="internal">
        <lane id=":antrim_44_0" index="0" speed="9.27" length="36.32" shape="2263.15,3475.46 2268.99,3477.26 2269.49,3473.90 2264.65,3465.39 2254.48,3451.73"/>
    </edge>
    <edge id=":antrim_45" function="internal">
        <lane id=":antrim_45_0" index="0" speed="9.34" length="36.68" shape="2263.15,3475.46 2269.15,3477.28 2269.83,3473.86 2265.20,3465.19 2255.27,3451.27"/>
    </edge>
    <edge id=":antrim_46" function="internal">
        <lane id=":antrim_46_0" index="0" speed="9.43" length="35.79" shape="2263.15,3475.46 2270.00,3477.56 2272.02,3474.34 2269.21,3465.80 2261.57,3451.93"/>
    </edge>
    <edge id=":antrim_47" function="internal">
        <lane id=":antrim_47_0" index="0" speed="9.70" length="34.04" shape="2263.15,3475.46 2271.39,3478.12 2275.94,3475.75 2276.80,3468.33 2273.95,3455.87"/>
    </edge>
    <edge id=":antrim_48" function="internal">
        <lane id=":antrim_48_0" index="0" speed="4.73" length="9.05" shape="2263.15,3475.46 2264.65,3477.82 2264.73,3479.55 2263.40,3480.65 2260.65,3481.13"/>
    </edge>
    <edge id=":antrim_49" function="internal">
        <lane id=":antrim_49_0" index="0" speed="3.63" length="4.13" shape="2263.25,3475.24 2264.55,3475.85 2265.07,3475.88 2264.79,3475.33 2263.71,3474.20"/>
    </edge>
    <edge id=":antrim_50" function="internal">
        <lane id=":antrim_50_0" index="0" speed="9.21" length="36.06" shape="2263.25,3475.24 2268.99,3477.08 2269.43,3473.78 2264.57,3465.35 2254.41,3451.77"/>
    </edge>
    <edge id=":antrim_51" function="internal">
        <lane id=":antrim_51_0" index="0" speed="9.22" length="36.09" shape="2263.25,3475.24 2269.01,3477.09 2269.46,3473.78 2264.62,3465.33 2254.48,3451.73"/>
    </edge>
    <edge id=":antrim_52" function="internal">
        <lane id=":antrim_52_0" index="0" speed="9.30" length="36.45" shape="2263.25,3475.24 2269.17,3477.12 2269.81,3473.74 2265.18,3465.13 2255.27,3451.27"/>
    </edge>
    <edge id=":antrim_53" function="internal">
        <lane id=":antrim_53_0" index="0" speed="9.39" length="35.59" shape="2263.25,3475.24 2270.04,3477.41 2272.02,3474.24 2269.20,3465.75 2261.57,3451.93"/>
    </edge>
    <edge id=":antrim_54" function="internal">
        <lane id=":antrim_54_0" index="0" speed="9.66" length="33.89" shape="2263.25,3475.24 2271.44,3477.99 2275.96,3475.67 2276.80,3468.30 2273.95,3455.87"/>
    </edge>
    <edge id=":antrim_55" function="internal">
        <lane id=":antrim_55_0" index="0" speed="4.42" length="7.61" shape="2263.25,3475.24 2263.92,3476.69 2263.41,3478.84 2262.17,3480.67 2260.65,3481.13"/>
    </edge>
    <edge id=":antrim_56" function="internal">
        <lane id=":antrim_56_0" index="0" speed="8.11" length="22.24" shape="2275.92,3493.01 2277.35,3490.88 2275.28,3488.19 2269.72,3484.94 2260.65,3481.13"/>
    </edge>
    <edge id=":antrim_57" function="internal">
        <lane id=":antrim_57_0" index="0" speed="9.31" length="23.77" shape="2275.92,3493.01 2276.87,3490.84 2275.15,3486.98 2270.76,3481.43 2263.71,3474.20"/>
    </edge>
    <edge id=":antrim_58" function="internal">
        <lane id=":antrim_58_0" index="0" speed="10.00" length="48.35" shape="2275.92,3493.01 2277.45,3488.76 2274.38,3480.47 2266.70,3468.14 2254.41,3451.77"/>
    </edge>
    <edge id=":antrim_59" function="internal">
        <lane id=":antrim_59_0" index="0" speed="10.00" length="48.36" shape="2275.92,3493.01 2277.46,3488.75 2274.40,3480.46 2266.74,3468.12 2254.48,3451.73"/>
    </edge>
    <edge id=":antrim_60" function="internal">
        <lane id=":antrim_60_0" index="0" speed="10.00" length="48.39" shape="2275.92,3493.01 2277.52,3488.72 2274.61,3480.33 2267.19,3467.85 2255.27,3451.27"/>
    </edge>
    <edge id=":antrim_61" function="internal">
        <lane id=":antrim_61_0" index="0" speed="10.00" length="45.32" shape="2275.92,3493.01 2277.97,3488.72 2276.26,3480.45 2270.79,3468.19 2261.57,3451.93"/>
    </edge>
    <edge id=":antrim_62" function="internal">
        <lane id=":antrim_62_0" index="0" speed="10.00" length="38.75" shape="2275.92,3493.01 2278.86,3488.90 2279.51,3481.35 2277.88,3470.34 2273.95,3455.87"/>
    </edge>
    <edge id=":athlone_0" function="internal">
        <lane id=":athlone_0_0" index="0" speed="10.00" length="42.66" shape="1263.33,2009.44 1259.42,1990.26 1255.96,1977.40 1252.96,1970.86 1250.40,1970.65"/>
    </edge>
    <edge id=":athlone_1" function="internal">
        <lane id=":athlone_1_0" index="0" speed="10.00" length="68.68" shape="1263.33,2009.44 1246.97,1942.74"/>
    </edge>
    <edge id=":athlone_2" function="internal">
        <lane id=":athlone_2_0" index="0" speed="10.00" length="70.24" shape="1263.33,2009.44 1261.23,1997.92 1257.56,1976.60 1254.24,1954.35 1253.18,1939.99"/>
    </edge>
    <edge id=":athlone_3" function="internal">
        <lane id=":athlone_3_0" index="0" speed="10.00" length="64.27" shape="1263.33,2009.44 1262.19,1998.01 1260.71,1977.29 1259.73,1956.62 1260.07,1945.31"/>
    </edge>
    <edge id=":athlone_4" function="internal">
        <lane id=":athlone_4_0" index="0" speed="10.00" length="63.95" shape="1263.33,2009.44 1262.28,1998.04 1261.01,1977.40 1260.28,1956.83 1260.85,1945.60"/>
    </edge>
    <edge id=":athlone_5" function="internal">
        <lane id=":athlone_5_0" index="0" speed="10.00" length="63.73" shape="1263.33,2009.44 1259.98,1987.22 1258.97,1969.37 1260.30,1955.88 1263.96,1946.76"/>
    </edge>
    <edge id=":athlone_6" function="internal">
        <lane id=":athlone_6_0" index="0" speed="10.00" length="63.22" shape="1263.33,2009.44 1260.35,1987.23 1260.48,1969.77 1263.74,1957.05 1270.12,1949.06"/>
    </edge>
    <edge id=":athlone_7" function="internal">
        <lane id=":athlone_7_0" index="0" speed="10.00" length="52.92" shape="1263.33,2009.44 1260.58,1991.04 1260.21,1975.56 1263.47,1965.62 1271.65,1963.86"/>
    </edge>
    <edge id=":athlone_8" function="internal">
        <lane id=":athlone_8_0" index="0" speed="8.36" length="29.68" shape="1263.33,2009.44 1264.36,2001.26 1269.23,1995.51 1275.73,1993.87 1281.62,1997.99"/>
    </edge>
    <edge id=":athlone_9" function="internal">
        <lane id=":athlone_9_0" index="0" speed="7.94" length="27.04" shape="1263.33,2009.44 1264.32,2001.98 1268.84,1996.70 1274.76,1995.19 1279.94,1999.05"/>
    </edge>
    <edge id=":athlone_10" function="internal">
        <lane id=":athlone_10_0" index="0" speed="5.11" length="11.03" shape="1263.33,2009.44 1263.87,2006.38 1265.93,2004.16 1268.35,2003.53 1270.01,2005.26"/>
    </edge>
    <edge id=":athlone_11" function="internal">
        <lane id=":athlone_11_0" index="0" speed="3.67" length="4.72" shape="1263.33,2009.44 1263.37,2007.99 1263.84,2007.21 1264.74,2007.13 1266.07,2007.73"/>
    </edge>
    <edge id=":athlone_12" function="internal">
        <lane id=":athlone_12_0" index="0" speed="8.73" length="34.29" shape="1277.23,2000.75 1270.65,1990.49 1267.26,1987.82 1267.04,1992.75 1270.01,2005.26"/>
    </edge>
    <edge id=":athlone_13" function="internal">
        <lane id=":athlone_13_0" index="0" speed="8.23" length="29.17" shape="1277.23,2000.75 1271.72,1992.47 1268.51,1990.57 1267.60,1995.05 1268.99,2005.90"/>
    </edge>
    <edge id=":athlone_14" function="internal">
        <lane id=":athlone_14_0" index="0" speed="10.00" length="42.53" shape="1277.23,2000.75 1267.51,1985.02 1259.80,1974.77 1254.10,1969.97 1250.40,1970.65"/>
    </edge>
    <edge id=":athlone_15" function="internal">
        <lane id=":athlone_15_0" index="0" speed="10.00" length="65.48" shape="1277.23,2000.75 1271.75,1991.23 1261.98,1973.78 1252.27,1955.31 1246.97,1942.74"/>
    </edge>
    <edge id=":athlone_16" function="internal">
        <lane id=":athlone_16_0" index="0" speed="10.00" length="65.56" shape="1277.23,2000.75 1272.28,1990.83 1263.91,1972.48 1256.19,1953.07 1253.18,1939.99"/>
    </edge>
    <edge id=":athlone_17" function="internal">
        <lane id=":athlone_17_0" index="0" speed="10.00" length="59.32" shape="1277.23,2000.75 1267.53,1982.43 1261.44,1967.09 1258.96,1954.72 1260.07,1945.31"/>
    </edge>
    <edge id=":athlone_18" function="internal">
        <lane id=":athlone_18_0" index="0" speed="10.00" length="58.97" shape="1277.23,2000.75 1267.57,1982.44 1261.63,1967.14 1259.39,1954.86 1260.85,1945.60"/>
    </edge>
    <edge id=":athlone_19" function="internal">
        <lane id=":athlone_19_0" index="0" speed="10.00" length="57.76" shape="1277.23,2000.75 1267.73,1982.44 1262.35,1967.34 1261.09,1955.45 1263.96,1946.76"/>
    </edge>
    <edge id=":athlone_20" function="internal">
        <lane id=":athlone_20_0" index="0" speed="10.00" length="56.37" shape="1277.23,2000.75 1268.03,1982.44 1263.78,1967.72 1264.47,1956.60 1270.12,1949.06"/>
    </edge>
    <edge id=":athlone_21" function="internal">
        <lane id=":athlone_21_0" index="0" speed="10.00" length="45.85" shape="1277.23,2000.75 1269.73,1986.78 1264.59,1973.86 1264.37,1965.17 1271.65,1963.86"/>
    </edge>
    <edge id=":athlone_22" function="internal">
        <lane id=":athlone_22_0" index="0" speed="3.80" length="5.19" shape="1277.23,2000.75 1281.62,1997.99"/>
    </edge>
    <edge id=":athlone_23" function="internal">
        <lane id=":athlone_23_0" index="0" speed="3.65" length="4.68" shape="1277.23,2000.75 1277.27,1999.30 1277.73,1998.54 1278.62,1998.45 1279.94,1999.05"/>
    </edge>
    <edge id=":athlone_24" function="internal">
        <lane id=":athlone_24_0" index="0" speed="7.66" length="25.45" shape="1276.20,2001.39 1270.98,1994.11 1268.21,1992.32 1267.89,1996.04 1270.01,2005.26"/>
    </edge>
    <edge id=":athlone_25" function="internal">
        <lane id=":athlone_25_0" index="0" speed="7.45" length="23.09" shape="1276.20,2001.39 1271.56,1995.14 1268.81,1993.81 1267.96,1997.39 1268.99,2005.90"/>
    </edge>
    <edge id=":athlone_26" function="internal">
        <lane id=":athlone_26_0" index="0" speed="10.00" length="41.09" shape="1276.20,2001.39 1266.17,1986.35 1258.53,1976.21 1253.27,1970.98 1250.40,1970.65"/>
    </edge>
    <edge id=":athlone_27" function="internal">
        <lane id=":athlone_27_0" index="0" speed="10.00" length="65.61" shape="1276.20,2001.39 1269.66,1990.05 1260.38,1972.57 1251.71,1954.84 1246.97,1942.74"/>
    </edge>
    <edge id=":athlone_28" function="internal">
        <lane id=":athlone_28_0" index="0" speed="10.00" length="65.86" shape="1276.20,2001.39 1270.19,1989.64 1262.31,1971.27 1255.62,1952.60 1253.18,1939.99"/>
    </edge>
    <edge id=":athlone_29" function="internal">
        <lane id=":athlone_29_0" index="0" speed="10.00" length="58.98" shape="1278.91,1999.69 1268.48,1981.86 1261.86,1966.85 1259.06,1954.67 1260.07,1945.31"/>
    </edge>
    <edge id=":athlone_30" function="internal">
        <lane id=":athlone_30_0" index="0" speed="10.00" length="58.61" shape="1278.91,1999.69 1268.51,1981.86 1262.04,1966.90 1259.49,1954.81 1260.85,1945.60"/>
    </edge>
    <edge id=":athlone_31" function="internal">
        <lane id=":athlone_31_0" index="0" speed="10.00" length="57.34" shape="1278.91,1999.69 1268.66,1981.86 1262.75,1967.10 1261.19,1955.40 1263.96,1946.76"/>
    </edge>
    <edge id=":athlone_32" function="internal">
        <lane id=":athlone_32_0" index="0" speed="10.00" length="55.84" shape="1278.91,1999.69 1268.95,1981.86 1264.17,1967.48 1264.56,1956.55 1270.12,1949.06"/>
    </edge>
    <edge id=":athlone_33" function="internal">
        <lane id=":athlone_33_0" index="0" speed="10.00" length="38.25" shape="1278.91,1999.69 1274.76,1990.65 1270.84,1978.21 1269.14,1967.55 1271.65,1963.86"/>
    </edge>
    <edge id=":athlone_34" function="internal">
        <lane id=":athlone_34_0" index="0" speed="7.60" length="27.51" shape="1278.91,1999.69 1284.54,2008.32 1286.58,2011.09 1285.05,2008.00 1279.94,1999.05"/>
    </edge>
    <edge id=":athlone_35" function="internal">
        <lane id=":athlone_35_0" index="0" speed="3.65" length="4.67" shape="1278.91,1999.69 1278.95,1998.25 1279.42,1997.49 1280.31,1997.40 1281.62,1997.99"/>
    </edge>
    <edge id=":athlone_36" function="internal">
        <lane id=":athlone_36_0" index="0" speed="10.00" length="0.10" shape="1281.60,1998.01 1281.62,1997.99"/>
    </edge>
    <edge id=":athlone_37" function="internal">
        <lane id=":athlone_37_0" index="0" speed="6.21" length="17.19" shape="1281.60,1998.01 1277.66,1992.93 1276.07,1991.42 1276.83,1993.45 1279.94,1999.05"/>
    </edge>
    <edge id=":athlone_38" function="internal">
        <lane id=":athlone_38_0" index="0" speed="9.54" length="39.57" shape="1281.60,1998.01 1272.72,1987.52 1267.82,1985.24 1266.92,1991.15 1270.01,2005.26"/>
    </edge>
    <edge id=":athlone_39" function="internal">
        <lane id=":athlone_39_0" index="0" speed="9.21" length="35.33" shape="1281.60,1998.01 1273.87,1989.19 1269.19,1987.56 1267.56,1993.13 1268.99,2005.90"/>
    </edge>
    <edge id=":athlone_40" function="internal">
        <lane id=":athlone_40_0" index="0" speed="10.00" length="43.65" shape="1281.60,1998.01 1270.03,1983.41 1260.98,1973.98 1254.43,1969.72 1250.40,1970.65"/>
    </edge>
    <edge id=":athlone_41" function="internal">
        <lane id=":athlone_41_0" index="0" speed="10.00" length="64.93" shape="1281.60,1998.01 1275.70,1988.85 1265.48,1971.87 1255.41,1953.81 1249.96,1941.42"/>
    </edge>
    <edge id=":athlone_42" function="internal">
        <lane id=":athlone_42_0" index="0" speed="10.00" length="64.84" shape="1281.60,1998.01 1276.29,1988.42 1267.59,1970.48 1259.64,1951.43 1256.54,1938.50"/>
    </edge>
    <edge id=":athlone_43" function="internal">
        <lane id=":athlone_43_0" index="0" speed="10.00" length="58.58" shape="1281.60,1998.01 1269.98,1980.94 1262.52,1966.46 1259.22,1954.59 1260.07,1945.31"/>
    </edge>
    <edge id=":athlone_44" function="internal">
        <lane id=":athlone_44_0" index="0" speed="10.00" length="58.19" shape="1281.60,1998.01 1270.02,1980.94 1262.70,1966.51 1259.64,1954.73 1260.85,1945.60"/>
    </edge>
    <edge id=":athlone_45" function="internal">
        <lane id=":athlone_45_0" index="0" speed="10.00" length="56.83" shape="1281.60,1998.01 1270.16,1980.94 1263.40,1966.71 1261.34,1955.32 1263.96,1946.76"/>
    </edge>
    <edge id=":athlone_46" function="internal">
        <lane id=":athlone_46_0" index="0" speed="10.00" length="50.96" shape="1281.60,1998.01 1276.95,1987.79 1272.24,1972.02 1269.33,1957.01 1270.12,1949.06"/>
    </edge>
    <edge id=":athlone_47" function="internal">
        <lane id=":athlone_47_0" index="0" speed="9.83" length="37.40" shape="1281.60,1998.01 1276.76,1989.37 1271.85,1977.46 1269.33,1967.29 1271.65,1963.86"/>
    </edge>
    <edge id=":athlone_48" function="internal">
        <lane id=":athlone_48_0" index="0" speed="7.38" length="24.80" shape="1284.67,1995.71 1278.38,1988.98 1275.78,1987.12 1276.86,1990.12 1281.62,1997.99"/>
    </edge>
    <edge id=":athlone_49" function="internal">
        <lane id=":athlone_49_0" index="0" speed="8.07" length="29.62" shape="1284.67,1995.71 1277.15,1987.77 1273.85,1985.68 1274.78,1989.44 1279.94,1999.05"/>
    </edge>
    <edge id=":athlone_50" function="internal">
        <lane id=":athlone_50_0" index="0" speed="10.00" length="42.51" shape="1284.67,1995.71 1274.28,1985.63 1268.37,1983.86 1266.95,1990.41 1270.01,2005.26"/>
    </edge>
    <edge id=":athlone_51" function="internal">
        <lane id=":athlone_51_0" index="0" speed="9.81" length="38.93" shape="1284.67,1995.71 1275.44,1987.05 1269.75,1985.86 1267.60,1992.15 1268.99,2005.90"/>
    </edge>
    <edge id=":athlone_52" function="internal">
        <lane id=":athlone_52_0" index="0" speed="10.00" length="44.53" shape="1284.67,1995.71 1271.80,1982.06 1261.80,1973.33 1254.67,1969.53 1250.40,1970.65"/>
    </edge>
    <edge id=":athlone_53" function="internal">
        <lane id=":athlone_53_0" index="0" speed="10.00" length="64.57" shape="1284.67,1995.71 1278.16,1987.02 1266.89,1970.82 1255.84,1953.49 1249.96,1941.42"/>
    </edge>
    <edge id=":athlone_54" function="internal">
        <lane id=":athlone_54_0" index="0" speed="10.00" length="65.27" shape="1284.67,1995.71 1271.54,1979.32 1262.47,1964.32 1257.47,1950.72 1256.54,1938.50"/>
    </edge>
    <edge id=":athlone_55" function="internal">
        <lane id=":athlone_55_0" index="0" speed="10.00" length="58.03" shape="1284.67,1995.71 1271.70,1979.67 1263.27,1965.93 1259.40,1954.47 1260.07,1945.31"/>
    </edge>
    <edge id=":athlone_56" function="internal">
        <lane id=":athlone_56_0" index="0" speed="10.00" length="57.61" shape="1284.67,1995.71 1271.73,1979.67 1263.45,1965.98 1259.82,1954.62 1260.85,1945.60"/>
    </edge>
    <edge id=":athlone_57" function="internal">
        <lane id=":athlone_57_0" index="0" speed="10.00" length="56.15" shape="1284.67,1995.71 1271.86,1979.68 1264.14,1966.18 1261.51,1955.21 1263.96,1946.76"/>
    </edge>
    <edge id=":athlone_58" function="internal">
        <lane id=":athlone_58_0" index="0" speed="10.00" length="49.64" shape="1284.67,1995.71 1279.28,1986.06 1273.49,1971.09 1269.66,1956.76 1270.12,1949.06"/>
    </edge>
    <edge id=":athlone_59" function="internal">
        <lane id=":athlone_59_0" index="0" speed="9.54" length="36.45" shape="1284.67,1995.71 1279.03,1987.60 1272.97,1976.43 1269.50,1966.93 1271.65,1963.86"/>
    </edge>
    <edge id=":athlone_60" function="internal">
        <lane id=":athlone_60_0" index="0" speed="8.74" length="32.38" shape="1269.31,1971.94 1267.17,1971.59 1268.51,1975.82 1273.32,1984.62 1281.62,1997.99"/>
    </edge>
    <edge id=":athlone_61" function="internal">
        <lane id=":athlone_61_0" index="0" speed="8.92" length="33.20" shape="1269.31,1971.94 1266.82,1971.49 1267.76,1975.87 1272.13,1985.05 1279.94,1999.05"/>
    </edge>
    <edge id=":athlone_62" function="internal">
        <lane id=":athlone_62_0" index="0" speed="10.00" length="38.67" shape="1269.31,1971.94 1265.38,1971.33 1264.18,1976.68 1265.73,1987.99 1270.01,2005.26"/>
    </edge>
    <edge id=":athlone_63" function="internal">
        <lane id=":athlone_63_0" index="0" speed="10.00" length="36.81" shape="1269.31,1971.94 1266.53,1972.19 1265.55,1977.94 1266.37,1989.17 1268.99,2005.90"/>
    </edge>
    <edge id=":athlone_64" function="internal">
        <lane id=":athlone_64_0" index="0" speed="9.90" length="20.98" shape="1269.31,1971.94 1263.26,1968.56 1258.09,1967.22 1253.80,1967.92 1250.40,1970.65"/>
    </edge>
    <edge id=":athlone_65" function="internal">
        <lane id=":athlone_65_0" index="0" speed="10.00" length="36.46" shape="1269.31,1971.94 1264.85,1967.36 1258.90,1959.29 1253.32,1949.91 1249.96,1941.42"/>
    </edge>
    <edge id=":athlone_66" function="internal">
        <lane id=":athlone_66_0" index="0" speed="10.00" length="37.62" shape="1269.31,1971.94 1262.89,1966.04 1258.62,1958.51 1256.51,1949.32 1256.54,1938.50"/>
    </edge>
    <edge id=":athlone_67" function="internal">
        <lane id=":athlone_67_0" index="0" speed="10.00" length="30.69" shape="1269.31,1971.94 1263.02,1966.40 1259.38,1960.12 1258.40,1953.09 1260.07,1945.31"/>
    </edge>
    <edge id=":athlone_68" function="internal">
        <lane id=":athlone_68_0" index="0" speed="10.00" length="30.38" shape="1269.31,1971.94 1263.04,1966.41 1259.55,1960.18 1258.82,1953.24 1260.85,1945.60"/>
    </edge>
    <edge id=":athlone_69" function="internal">
        <lane id=":athlone_69_0" index="0" speed="10.00" length="27.82" shape="1269.31,1971.94 1264.79,1966.96 1262.13,1960.19 1261.73,1952.99 1263.96,1946.76"/>
    </edge>
    <edge id=":athlone_70" function="internal">