<?xml version="1.0" encoding="UTF-8"?>

<!-- generated on 2025-02-19 13:01:22 by Eclipse SUMO netconvert Version 1.18.0
<configuration xmlns:xsi="http://www.w3.org/2001/XMLSchema-instance" xsi:noNamespaceSchemaLocation="http://sumo.dlr.de/xsd/netconvertConfiguration.xsd">

    <input>
        <node-files value="nod.xml"/>
        <edge-files value="edge_xmls/09548.xml"/>
    </input>

    <output>
        <output-file value="networks/09548.net.xml"/>
    </output>

</configuration>
-->

<net version="1.16" junctionCornerDetail="5" limitTurnSpeed="5.50" xmlns:xsi="http://www.w3.org/2001/XMLSchema-instance" xsi:noNamespaceSchemaLocation="http://sumo.dlr.de/xsd/net_file.xsd">

    <location netOffset="-682.00,4368.00" convBoundary="0.00,0.00,2498.00,3881.00" origBoundary="682.00,-4368.00,3180.00,-487.00" projParameter="!"/>

    <edge id=":antrim_0" function="internal">
        <lane id=":antrim_0_0" index="0" speed="10.00" length="75.59" shape="2290.00,3461.68 2286.05,3475.72 2276.69,3489.54 2261.92,3503.15 2241.74,3516.55"/>
    </edge>
    <edge id=":antrim_1" function="internal">
        <lane id=":antrim_1_0" index="0" speed="10.00" length="75.84" shape="2290.00,3461.68 2285.71,3478.18 2275.97,3492.22 2260.76,3503.80 2240.09,3512.92"/>
    </edge>
    <edge id=":antrim_2" function="internal">
        <lane id=":antrim_2_0" index="0" speed="10.00" length="50.33" shape="2290.00,3461.68 2286.30,3474.91 2278.51,3481.37 2267.12,3482.08 2252.60,3478.09"/>
    </edge>
    <edge id=":antrim_3" function="internal">
        <lane id=":antrim_3_0" index="0" speed="10.00" length="39.98" shape="2290.00,3461.68 2285.24,3467.97 2274.94,3472.86 2263.31,3475.32 2254.56,3474.30"/>
    </edge>
    <edge id=":antrim_4" function="internal">
        <lane id=":antrim_4_0" index="0" speed="10.00" length="40.44" shape="2290.00,3461.68 2285.10,3468.19 2274.57,3473.46 2262.86,3476.04 2254.47,3474.48"/>
    </edge>
    <edge id=":antrim_5" function="internal">
        <lane id=":antrim_5_0" index="0" speed="10.00" length="39.95" shape="2290.00,3461.68 2286.35,3471.15 2278.84,3474.54 2269.31,3472.52 2259.59,3465.79"/>
    </edge>
    <edge id=":antrim_6" function="internal">
        <lane id=":antrim_6_0" index="0" speed="7.75" length="22.74" shape="2290.00,3461.68 2287.32,3466.21 2281.72,3469.38 2275.60,3470.26 2271.32,3467.95"/>
    </edge>
    <edge id=":antrim_7" function="internal">
        <lane id=":antrim_7_0" index="0" speed="7.18" length="20.55" shape="2290.00,3461.68 2287.34,3464.77 2281.83,3465.44 2275.99,3463.98 2272.34,3460.71"/>
    </edge>
    <edge id=":antrim_8" function="internal">
        <lane id=":antrim_8_0" index="0" speed="7.68" length="23.84" shape="2290.00,3461.68 2287.43,3466.87 2282.34,3468.15 2276.71,3465.94 2272.54,3460.63"/>
    </edge>
    <edge id=":antrim_9" function="internal">
        <lane id=":antrim_9_0" index="0" speed="6.85" length="19.45" shape="2290.00,3461.68 2287.83,3465.71 2283.56,3466.38 2279.02,3464.16 2276.03,3459.54"/>
    </edge>
    <edge id=":antrim_10" function="internal">
        <lane id=":antrim_10_0" index="0" speed="5.53" length="12.53" shape="2290.00,3461.68 2288.33,3463.23 2284.93,3462.90 2281.49,3461.24 2279.69,3458.81"/>
    </edge>
    <edge id=":antrim_11" function="internal">
        <lane id=":antrim_11_0" index="0" speed="4.79" length="9.24" shape="2290.00,3461.68 2288.81,3462.61 2286.42,3461.89 2284.05,3460.19 2282.93,3458.16"/>
    </edge>
    <edge id=":antrim_12" function="internal">
        <lane id=":antrim_12_0" index="0" speed="4.59" length="8.41" shape="2290.00,3461.68 2288.95,3462.46 2286.84,3461.64 2284.76,3459.92 2283.81,3457.99"/>
    </edge>
    <edge id=":antrim_13" function="internal">
        <lane id=":antrim_13_0" index="0" speed="3.65" length="4.67" shape="2290.00,3461.68 2289.10,3462.81 2288.26,3463.14 2287.50,3462.67 2286.81,3461.41"/>
    </edge>
    <edge id=":antrim_14" function="internal">
        <lane id=":antrim_14_0" index="0" speed="7.94" length="29.59" shape="2282.83,3458.18 2280.96,3447.38 2279.82,3443.88 2279.42,3447.68 2279.75,3458.80"/>
    </edge>
    <edge id=":antrim_15" function="internal">
        <lane id=":antrim_15_0" index="0" speed="4.38" length="7.38" shape="2282.83,3458.18 2283.31,3460.86 2283.63,3461.72 2283.80,3460.76 2283.81,3457.99"/>
    </edge>
    <edge id=":antrim_16" function="internal">
        <lane id=":antrim_16_0" index="0" speed="6.24" length="16.60" shape="2282.83,3458.18 2284.10,3464.96 2285.19,3467.76 2286.09,3466.57 2286.81,3461.41"/>
    </edge>
    <edge id=":antrim_17" function="internal">
        <lane id=":antrim_17_0" index="0" speed="10.00" length="75.74" shape="2282.83,3458.18 2282.11,3473.70 2275.02,3488.60 2261.56,3502.89 2241.74,3516.55"/>
    </edge>
    <edge id=":antrim_18" function="internal">
        <lane id=":antrim_18_0" index="0" speed="10.00" length="76.26" shape="2282.83,3458.18 2282.39,3475.97 2275.12,3491.03 2261.02,3503.35 2240.09,3512.92"/>
    </edge>
    <edge id=":antrim_19" function="internal">
        <lane id=":antrim_19_0" index="0" speed="10.00" length="38.85" shape="2282.83,3458.18 2279.85,3465.44 2271.35,3472.61 2261.02,3477.54 2252.60,3478.09"/>
    </edge>
    <edge id=":antrim_20" function="internal">
        <lane id=":antrim_20_0" index="0" speed="10.00" length="35.63" shape="2282.83,3458.18 2280.10,3464.99 2272.16,3471.08 2262.49,3474.76 2254.56,3474.30"/>
    </edge>
    <edge id=":antrim_21" function="internal">
        <lane id=":antrim_21_0" index="0" speed="9.56" length="33.63" shape="2282.83,3458.18 2280.20,3464.75 2272.54,3470.23 2263.31,3473.04 2255.97,3471.59"/>
    </edge>
    <edge id=":antrim_22" function="internal">
        <lane id=":antrim_22_0" index="0" speed="8.60" length="28.18" shape="2282.83,3458.18 2280.56,3463.56 2273.88,3467.13 2265.88,3468.12 2259.59,3465.79"/>
    </edge>
    <edge id=":antrim_23" function="internal">
        <lane id=":antrim_23_0" index="0" speed="6.57" length="17.56" shape="2282.83,3458.18 2281.73,3462.41 2278.35,3466.55 2274.33,3468.94 2271.32,3467.95"/>
    </edge>
    <edge id=":antrim_24" function="internal">
        <lane id=":antrim_24_0" index="0" speed="5.56" length="12.71" shape="2282.83,3458.18 2281.62,3460.54 2278.32,3462.02 2274.64,3462.22 2272.34,3460.71"/>
    </edge>
    <edge id=":antrim_25" function="internal">
        <lane id=":antrim_25_0" index="0" speed="5.51" length="12.46" shape="2282.83,3458.18 2281.64,3460.49 2278.39,3461.93 2274.79,3462.11 2272.54,3460.63"/>
    </edge>
    <edge id=":antrim_26" function="internal">
        <lane id=":antrim_26_0" index="0" speed="4.56" length="8.20" shape="2282.83,3458.18 2282.01,3459.67 2279.80,3460.55 2277.41,3460.59 2276.03,3459.54"/>
    </edge>
    <edge id=":antrim_27" function="internal">
        <lane id=":antrim_27_0" index="0" speed="3.65" length="4.68" shape="2282.83,3458.18 2282.28,3459.52 2281.58,3460.07 2280.71,3459.83 2279.69,3458.81"/>
    </edge>
    <edge id=":antrim_28" function="internal">
        <lane id=":antrim_28_0" index="0" speed="3.62" length="4.38" shape="2279.18,3458.91 2279.65,3460.47 2279.90,3460.98 2279.91,3460.42 2279.69,3458.81"/>
    </edge>
    <edge id=":antrim_29" function="internal">
        <lane id=":antrim_29_0" index="0" speed="3.15" length="2.65" shape="2279.18,3458.91 2279.48,3459.83 2279.67,3460.12 2279.76,3459.77 2279.75,3458.80"/>
    </edge>
    <edge id=":antrim_30" function="internal">
        <lane id=":antrim_30_0" index="0" speed="6.67" length="19.10" shape="2279.18,3458.91 2281.34,3465.48 2282.83,3467.52 2283.65,3465.02 2283.81,3457.99"/>
    </edge>
    <edge id=":antrim_31" function="internal">
        <lane id=":antrim_31_0" index="0" speed="7.22" length="21.82" shape="2279.18,3458.91 2281.90,3467.03 2284.08,3470.16 2285.72,3468.28 2286.81,3461.41"/>
    </edge>
    <edge id=":antrim_32" function="internal">
        <lane id=":antrim_32_0" index="0" speed="10.00" length="74.01" shape="2279.18,3458.91 2280.10,3474.08 2274.17,3488.75 2261.38,3502.90 2241.74,3516.55"/>
    </edge>
    <edge id=":antrim_33" function="internal">
        <lane id=":antrim_33_0" index="0" speed="10.00" length="72.47" shape="2279.18,3458.91 2280.29,3474.92 2273.97,3488.76 2260.23,3500.41 2239.07,3509.89"/>
    </edge>
    <edge id=":antrim_34" function="internal">
        <lane id=":antrim_34_0" index="0" speed="10.00" length="35.84" shape="2279.18,3458.91 2277.21,3465.96 2269.91,3472.88 2260.60,3477.62 2252.60,3478.09"/>
    </edge>
    <edge id=":antrim_35" function="internal">
        <lane id=":antrim_35_0" index="0" speed="9.55" length="32.59" shape="2279.18,3458.91 2277.46,3465.51 2270.73,3471.36 2262.07,3474.84 2254.56,3474.30"/>
    </edge>
    <edge id=":antrim_36" function="internal">
        <lane id=":antrim_36_0" index="0" speed="8.89" length="30.53" shape="2279.18,3458.91 2277.54,3465.23 2271.07,3470.47 2262.86,3473.09 2255.97,3471.59"/>
    </edge>
    <edge id=":antrim_37" function="internal">
        <lane id=":antrim_37_0" index="0" speed="7.79" length="24.07" shape="2279.18,3458.91 2277.61,3463.47 2271.96,3466.65 2265.02,3467.67 2259.59,3465.79"/>
    </edge>
    <edge id=":antrim_38" function="internal">
        <lane id=":antrim_38_0" index="0" speed="5.82" length="13.95" shape="2279.18,3458.91 2278.70,3462.42 2276.43,3466.15 2273.57,3468.52 2271.32,3467.95"/>
    </edge>
    <edge id=":antrim_39" function="internal">
        <lane id=":antrim_39_0" index="0" speed="4.59" length="8.36" shape="2279.18,3458.91 2278.51,3460.45 2276.34,3461.48 2273.88,3461.67 2272.34,3460.71"/>
    </edge>
    <edge id=":antrim_40" function="internal">
        <lane id=":antrim_40_0" index="0" speed="4.53" length="8.11" shape="2279.18,3458.91 2278.53,3460.40 2276.42,3461.39 2274.03,3461.56 2272.54,3460.63"/>
    </edge>
    <edge id=":antrim_41" function="internal">
        <lane id=":antrim_41_0" index="0" speed="3.65" length="4.69" shape="2279.18,3458.91 2278.63,3460.25 2277.92,3460.80 2277.05,3460.56 2276.03,3459.54"/>
    </edge>
    <edge id=":antrim_42" function="internal">
        <lane id=":antrim_42_0" index="0" speed="4.86" length="9.54" shape="2278.31,3459.08 2279.46,3462.45 2280.07,3463.52 2280.15,3462.31 2279.69,3458.81"/>
    </edge>
    <edge id=":antrim_43" function="internal">
        <lane id=":antrim_43_0" index="0" speed="4.11" length="5.95" shape="2278.31,3459.08 2279.05,3461.12 2279.53,3461.75 2279.77,3460.98 2279.75,3458.80"/>
    </edge>
    <edge id=":antrim_44" function="internal">
        <lane id=":antrim_44_0" index="0" speed="6.93" length="20.57" shape="2278.31,3459.08 2280.86,3466.05 2282.62,3468.19 2283.61,3465.50 2283.81,3457.99"/>
    </edge>
    <edge id=":antrim_45" function="internal">
        <lane id=":antrim_45_0" index="0" speed="7.39" length="22.74" shape="2278.31,3459.08 2281.39,3467.37 2283.84,3470.52 2285.64,3468.53 2286.81,3461.41"/>
    </edge>
    <edge id=":antrim_46" function="internal">
        <lane id=":antrim_46_0" index="0" speed="10.00" length="73.64" shape="2278.31,3459.08 2279.63,3474.17 2273.97,3488.78 2261.34,3502.91 2241.74,3516.55"/>
    </edge>
    <edge id=":antrim_47" function="internal">
        <lane id=":antrim_47_0" index="0" speed="10.00" length="72.11" shape="2278.31,3459.08 2279.85,3475.00 2273.82,3488.78 2260.23,3500.41 2239.07,3509.89"/>
    </edge>
    <edge id=":antrim_48" function="internal">
        <lane id=":antrim_48_0" index="0" speed="10.00" length="35.14" shape="2278.31,3459.08 2276.59,3466.07 2269.57,3472.94 2260.50,3477.64 2252.60,3478.09"/>
    </edge>
    <edge id=":antrim_49" function="internal">
        <lane id=":antrim_49_0" index="0" speed="9.39" length="31.89" shape="2278.31,3459.08 2276.83,3465.62 2270.39,3471.42 2261.97,3474.86 2254.56,3474.30"/>
    </edge>
    <edge id=":antrim_50" function="internal">
        <lane id=":antrim_50_0" index="0" speed="8.28" length="26.52" shape="2278.31,3459.08 2276.87,3464.33 2271.01,3468.40 2263.59,3470.21 2257.46,3468.70"/>
    </edge>
    <edge id=":antrim_51" function="internal">
        <lane id=":antrim_51_0" index="0" speed="7.60" length="23.09" shape="2278.31,3459.08 2276.90,3463.45 2271.49,3466.53 2264.81,3467.57 2259.59,3465.79"/>
    </edge>
    <edge id=":antrim_52" function="internal">
        <lane id=":antrim_52_0" index="0" speed="5.64" length="13.14" shape="2278.31,3459.08 2277.97,3462.44 2275.97,3466.07 2273.39,3468.43 2271.32,3467.95"/>
    </edge>
    <edge id=":antrim_53" function="internal">
        <lane id=":antrim_53_0" index="0" speed="4.34" length="7.33" shape="2278.31,3459.08 2277.75,3460.44 2275.86,3461.35 2273.70,3461.54 2272.34,3460.71"/>
    </edge>
    <edge id=":antrim_54" function="internal">
        <lane id=":antrim_54_0" index="0" speed="10.00" length="81.43" shape="2278.31,3459.08 2269.04,3429.94 2265.57,3420.30 2267.90,3430.17 2276.03,3459.54"/>
    </edge>
    <edge id=":antrim_55" function="internal">
        <lane id=":antrim_55_0" index="0" speed="4.65" length="8.73" shape="2278.31,3459.08 2277.45,3461.63 2276.20,3462.74 2274.56,3462.41 2272.54,3460.63"/>
    </edge>
    <edge id=":antrim_56" function="internal">
        <lane id=":antrim_56_0" index="0" speed="3.94" length="5.49" shape="2270.62,3468.45 2271.98,3469.97 2272.55,3470.39 2272.33,3469.72 2271.32,3467.95"/>
    </edge>
    <edge id=":antrim_57" function="internal">
        <lane id=":antrim_57_0" index="0" speed="6.74" length="19.20" shape="2270.62,3468.45 2274.43,3472.32 2275.99,3472.32 2275.29,3468.45 2272.34,3460.71"/>
    </edge>
    <edge id=":antrim_58" function="internal">
        <lane id=":antrim_58_0" index="0" speed="6.79" length="19.48" shape="2270.62,3468.45 2274.50,3472.38 2276.11,3472.39 2275.46,3468.47 2272.54,3460.63"/>
    </edge>
    <edge id=":antrim_59" function="internal">
        <lane id=":antrim_59_0" index="0" speed="7.50" length="23.07" shape="2270.62,3468.45 2275.40,3473.12 2277.90,3473.19 2278.11,3468.66 2276.03,3459.54"/>
    </edge>
    <edge id=":antrim_60" function="internal">
        <lane id=":antrim_60_0" index="0" speed="8.08" length="25.77" shape="2270.62,3468.45 2276.04,3473.55 2279.35,3473.64 2280.57,3468.73 2279.69,3458.81"/>
    </edge>
    <edge id=":antrim_61" function="internal">
        <lane id=":antrim_61_0" index="0" speed="8.59" length="28.03" shape="2270.62,3468.45 2276.47,3473.79 2280.48,3473.85 2282.63,3468.64 2282.93,3458.16"/>
    </edge>
    <edge id=":antrim_62" function="internal">
        <lane id=":antrim_62_0" index="0" speed="8.73" length="28.65" shape="2270.62,3468.45 2276.58,3473.84 2280.76,3473.89 2283.17,3468.60 2283.81,3457.99"/>
    </edge>
    <edge id=":antrim_63" function="internal">
        <lane id=":antrim_63_0" index="0" speed="8.88" length="28.29" shape="2270.62,3468.45 2276.93,3474.24 2281.73,3474.99 2285.02,3470.71 2286.81,3461.41"/>
    </edge>
    <edge id=":antrim_64" function="internal">
        <lane id=":antrim_64_0" index="0" speed="10.00" length="57.05" shape="2270.62,3468.45 2268.98,3477.44 2260.65,3492.70 2250.09,3507.86 2241.74,3516.55"/>
    </edge>
    <edge id=":antrim_65" function="internal">
        <lane id=":antrim_65_0" index="0" speed="10.00" length="51.74" shape="2270.62,3468.45 2268.74,3476.44 2259.29,3488.71 2247.37,3500.45 2238.05,3506.86"/>
    </edge>
    <edge id=":antrim_66" function="internal">
        <lane id=":antrim_66_0" index="0" speed="7.68" length="23.54" shape="2270.62,3468.45 2270.56,3472.49 2265.66,3476.12 2258.73,3478.33 2252.60,3478.09"/>
    </edge>
    <edge id=":antrim_67" function="internal">
        <lane id=":antrim_67_0" index="0" speed="6.92" length="19.72" shape="2270.62,3468.45 2270.38,3471.57 2265.87,3474.00 2259.72,3475.11 2254.56,3474.30"/>
    </edge>
    <edge id=":antrim_68" function="internal">
        <lane id=":antrim_68_0" index="0" speed="5.94" length="15.03" shape="2270.62,3468.45 2270.25,3470.28 2266.40,3470.84 2261.38,3470.27 2257.46,3468.70"/>
    </edge>
    <edge id=":antrim_69" function="internal">
        <lane id=":antrim_69_0" index="0" speed="6.10" length="16.57" shape="2270.62,3468.45 2266.87,3471.92 2263.77,3472.64 2261.35,3470.59 2259.59,3465.79"/>
    </edge>
    <edge id=":antrim_70" function="internal">
        <lane id=":antrim_70_0" index="0" speed="4.64" length="8.61" shape="2254.08,3475.22 2257.12,3476.30 2258.21,3476.51 2257.36,3475.84 2254.56,3474.30"/>
    </edge>
    <edge id=":antrim_71" function="internal">
        <lane id=":antrim_71_0" index="0" speed="3.26" length="2.91" shape="2254.08,3475.22 2255.08,3475.54 2255.47,3475.53 2255.27,3475.17 2254.47,3474.48"/>
    </edge>
    <edge id=":antrim_72" function="internal">
        <lane id=":antrim_72_0" index="0" speed="8.33" length="29.27" shape="2254.08,3475.22 2263.88,3478.21 2268.06,3477.63 2266.63,3473.49 2259.59,3465.79"/>
    </edge>
    <edge id=":antrim_73" function="internal">
        <lane id=":antrim_73_0" index="0" speed="8.98" length="30.73" shape="2254.08,3475.22 2265.71,3478.76 2272.46,3478.72 2274.33,3475.12 2271.32,3467.95"/>
    </edge>
    <edge id=":antrim_74" function="internal">
        <lane id=":antrim_74_0" index="0" speed="10.00" length="36.72" shape="2254.08,3475.22 2266.10,3478.43 2273.14,3477.08 2275.22,3471.17 2272.34,3460.71"/>
    </edge>
    <edge id=":antrim_75" function="internal">
        <lane id=":antrim_75_0" index="0" speed="10.00" length="36.86" shape="2254.08,3475.22 2266.12,3478.43 2273.21,3477.06 2275.35,3471.13 2272.54,3460.63"/>
    </edge>
    <edge id=":antrim_76" function="internal">
        <lane id=":antrim_76_0" index="0" speed="10.00" length="39.00" shape="2254.08,3475.22 2266.52,3478.43 2274.33,3476.88 2277.50,3470.58 2276.03,3459.54"/>
    </edge>
    <edge id=":antrim_77" function="internal">
        <lane id=":antrim_77_0" index="0" speed="10.00" length="41.15" shape="2254.08,3475.22 2266.90,3478.44 2275.44,3476.77 2279.71,3470.23 2279.69,3458.81"/>
    </edge>
    <edge id=":antrim_78" function="internal">
        <lane id=":antrim_78_0" index="0" speed="10.00" length="43.24" shape="2254.08,3475.22 2267.21,3478.44 2276.40,3476.67 2281.63,3469.91 2282.93,3458.16"/>
    </edge>
    <edge id=":antrim_79" function="internal">
        <lane id=":antrim_79_0" index="0" speed="10.00" length="43.83" shape="2254.08,3475.22 2267.29,3478.44 2276.65,3476.64 2282.15,3469.82 2283.81,3457.99"/>
    </edge>
    <edge id=":antrim_80" function="internal">
        <lane id=":antrim_80_0" index="0" speed="10.00" length="43.32" shape="2254.08,3475.22 2267.57,3478.69 2277.52,3477.54 2283.93,3471.78 2286.81,3461.41"/>
    </edge>
    <edge id=":antrim_81" function="internal">
        <lane id=":antrim_81_0" index="0" speed="10.00" length="45.57" shape="2254.08,3475.22 2256.74,3482.38 2253.91,3495.39 2248.08,3508.66 2241.74,3516.55"/>
    </edge>
    <edge id=":antrim_82" function="internal">
        <lane id=":antrim_82_0" index="0" speed="10.00" length="38.52" shape="2254.08,3475.22 2256.27,3481.09 2252.34,3491.16 2245.28,3501.16 2238.05,3506.86"/>
    </edge>
    <edge id=":antrim_83" function="internal">
        <lane id=":antrim_83_0" index="0" speed="3.66" length="4.71" shape="2254.08,3475.22 2254.79,3476.50 2254.77,3477.40 2254.04,3477.93 2252.60,3478.09"/>
    </edge>
    <edge id=":athlone_0" function="internal">
        <lane id=":athlone_0_0" index="0" speed="3.59" length="4.23" shape="1258.05,1981.35 1258.36,1982.88 1258.56,1983.38 1258.63,1982.83 1258.59,1981.25"/>
    </edge>
    <edge id=":athlone_1" function="internal">
        <lane id=":athlone_1_0" index="0" speed="7.12" length="20.99" shape="1258.05,1981.35 1256.80,1977.57 1255.19,1978.23 1253.25,1983.33 1250.95,1992.87"/>
    </edge>
    <edge id=":athlone_2" function="internal">
        <lane id=":athlone_2_0" index="0" speed="8.38" length="24.33" shape="1258.05,1981.35 1255.92,1975.14 1252.50,1973.08 1247.82,1975.18 1241.85,1981.43"/>
    </edge>
    <edge id=":athlone_3" function="internal">
        <lane id=":athlone_3_0" index="0" speed="10.00" length="27.64" shape="1258.05,1981.35 1255.87,1972.81 1252.77,1966.28 1248.74,1961.76 1243.80,1959.24"/>
    </edge>
    <edge id=":athlone_4" function="internal">
        <lane id=":athlone_4_0" index="0" speed="10.00" length="55.16" shape="1258.05,1981.35 1253.41,1972.60 1243.79,1957.89 1233.67,1943.46 1227.51,1935.52"/>
    </edge>
    <edge id=":athlone_5" function="internal">
        <lane id=":athlone_5_0" index="0" speed="10.00" length="55.98" shape="1258.05,1981.35 1253.75,1972.25 1244.92,1956.74 1235.65,1941.44 1230.02,1932.96"/>
    </edge>
    <edge id=":athlone_6" function="internal">
        <lane id=":athlone_6_0" index="0" speed="10.00" length="28.34" shape="1258.05,1981.35 1256.73,1971.84 1256.50,1964.04 1257.37,1957.96 1259.34,1953.59"/>
    </edge>
    <edge id=":athlone_7" function="internal">
        <lane id=":athlone_7_0" index="0" speed="10.00" length="28.32" shape="1258.05,1981.35 1256.74,1971.83 1256.57,1964.05 1257.53,1958.00 1259.63,1953.68"/>
    </edge>
    <edge id=":athlone_8" function="internal">
        <lane id=":athlone_8_0" index="0" speed="10.00" length="28.10" shape="1258.05,1981.35 1256.87,1971.79 1257.15,1964.17 1258.88,1958.49 1262.06,1954.76"/>
    </edge>
    <edge id=":athlone_9" function="internal">
        <lane id=":athlone_9_0" index="0" speed="6.49" length="17.08" shape="1258.05,1981.35 1258.95,1977.54 1262.41,1976.25 1266.80,1977.33 1270.50,1980.64"/>
    </edge>
    <edge id=":athlone_10" function="internal">
        <lane id=":athlone_10_0" index="0" speed="3.68" length="4.79" shape="1258.05,1981.35 1258.64,1979.99 1259.37,1979.44 1260.25,1979.69 1261.28,1980.75"/>
    </edge>
    <edge id=":athlone_11" function="internal">
        <lane id=":athlone_11_0" index="0" speed="4.16" length="6.22" shape="1259.92,1981.00 1259.23,1978.84 1258.77,1978.15 1258.56,1978.96 1258.59,1981.25"/>
    </edge>
    <edge id=":athlone_12" function="internal">
        <lane id=":athlone_12_0" index="0" speed="7.59" length="23.20" shape="1259.92,1981.00 1257.97,1976.77 1255.83,1977.34 1253.49,1982.71 1250.95,1992.87"/>
    </edge>
    <edge id=":athlone_13" function="internal">
        <lane id=":athlone_13_0" index="0" speed="8.79" length="25.66" shape="1259.92,1981.00 1257.06,1974.83 1253.09,1972.84 1248.02,1975.04 1241.85,1981.43"/>
    </edge>
    <edge id=":athlone_14" function="internal">
        <lane id=":athlone_14_0" index="0" speed="10.00" length="28.21" shape="1259.92,1981.00 1256.95,1972.63 1253.28,1966.21 1248.90,1961.75 1243.80,1959.24"/>
    </edge>
    <edge id=":athlone_15" function="internal">
        <lane id=":athlone_15_0" index="0" speed="10.00" length="55.91" shape="1259.92,1981.00 1254.79,1972.35 1244.56,1957.76 1233.90,1943.42 1227.51,1935.52"/>
    </edge>
    <edge id=":athlone_16" function="internal">
        <lane id=":athlone_16_0" index="0" speed="10.00" length="56.62" shape="1259.92,1981.00 1255.14,1972.00 1245.68,1956.61 1235.87,1941.40 1230.02,1932.96"/>
    </edge>
    <edge id=":athlone_17" function="internal">
        <lane id=":athlone_17_0" index="0" speed="10.00" length="28.11" shape="1259.92,1981.00 1257.76,1971.67 1256.94,1963.99 1257.47,1957.97 1259.34,1953.59"/>
    </edge>
    <edge id=":athlone_18" function="internal">
        <lane id=":athlone_18_0" index="0" speed="10.00" length="28.08" shape="1259.92,1981.00 1257.77,1971.67 1257.01,1964.00 1257.63,1958.00 1259.63,1953.68"/>
    </edge>
    <edge id=":athlone_19" function="internal">
        <lane id=":athlone_19_0" index="0" speed="10.00" length="27.06" shape="1259.92,1981.00 1258.70,1973.73 1258.62,1965.76 1259.73,1958.85 1262.06,1954.76"/>
    </edge>
    <edge id=":athlone_20" function="internal">
        <lane id=":athlone_20_0" index="0" speed="5.93" length="15.59" shape="1259.92,1981.00 1261.57,1986.61 1262.35,1988.43 1262.25,1986.48 1261.28,1980.75"/>
    </edge>
    <edge id=":athlone_21" function="internal">
        <lane id=":athlone_21_0" index="0" speed="6.11" length="15.46" shape="1259.92,1981.00 1262.43,1976.95 1265.02,1975.53 1267.71,1976.76 1270.50,1980.64"/>
    </edge>
    <edge id=":athlone_22" function="internal">
        <lane id=":athlone_22_0" index="0" speed="3.66" length="4.39" shape="1259.43,1981.09 1258.98,1979.54 1258.69,1979.05 1258.56,1979.62 1258.59,1981.25"/>
    </edge>
    <edge id=":athlone_23" function="internal">
        <lane id=":athlone_23_0" index="0" speed="7.47" length="22.66" shape="1259.43,1981.09 1257.67,1976.96 1255.67,1977.54 1253.43,1982.85 1250.95,1992.87"/>
    </edge>
    <edge id=":athlone_24" function="internal">
        <lane id=":athlone_24_0" index="0" speed="8.68" length="25.31" shape="1259.43,1981.09 1256.76,1974.90 1252.94,1972.90 1247.97,1975.07 1241.85,1981.43"/>
    </edge>
    <edge id=":athlone_25" function="internal">
        <lane id=":athlone_25_0" index="0" speed="10.00" length="28.05" shape="1259.43,1981.09 1256.67,1972.68 1253.15,1966.23 1248.86,1961.75 1243.80,1959.24"/>
    </edge>
    <edge id=":athlone_26" function="internal">
        <lane id=":athlone_26_0" index="0" speed="10.00" length="55.71" shape="1259.43,1981.09 1254.43,1972.42 1244.36,1957.79 1233.84,1943.43 1227.51,1935.52"/>
    </edge>
    <edge id=":athlone_27" function="internal">
        <lane id=":athlone_27_0" index="0" speed="10.00" length="56.45" shape="1259.43,1981.09 1254.77,1972.06 1245.48,1956.64 1235.81,1941.41 1230.02,1932.96"/>
    </edge>
    <edge id=":athlone_28" function="internal">
        <lane id=":athlone_28_0" index="0" speed="10.00" length="28.15" shape="1259.43,1981.09 1257.49,1971.72 1256.83,1964.01 1257.44,1957.97 1259.34,1953.59"/>
    </edge>
    <edge id=":athlone_29" function="internal">
        <lane id=":athlone_29_0" index="0" speed="10.00" length="28.13" shape="1259.43,1981.09 1257.50,1971.71 1256.89,1964.01 1257.60,1958.00 1259.63,1953.68"/>
    </edge>
    <edge id=":athlone_30" function="internal">
        <lane id=":athlone_30_0" index="0" speed="10.00" length="27.83" shape="1259.43,1981.09 1257.63,1971.66 1257.46,1964.13 1258.94,1958.49 1262.06,1954.76"/>
    </edge>
    <edge id=":athlone_31" function="internal">
        <lane id=":athlone_31_0" index="0" speed="5.67" length="12.91" shape="1259.43,1981.09 1260.50,1979.08 1263.88,1978.36 1267.80,1978.90 1270.50,1980.64"/>
    </edge>
    <edge id=":athlone_32" function="internal">
        <lane id=":athlone_32_0" index="0" speed="7.82" length="29.05" shape="1259.43,1981.09 1262.21,1991.62 1263.45,1995.07 1263.14,1991.45 1261.28,1980.75"/>
    </edge>
    <edge id=":athlone_33" function="internal">
        <lane id=":athlone_33_0" index="0" speed="9.02" length="22.82" shape="1264.58,1960.49 1262.69,1962.32 1263.04,1966.29 1265.64,1972.39 1270.50,1980.64"/>
    </edge>
    <edge id=":athlone_34" function="internal">
        <lane id=":athlone_34_0" index="0" speed="10.00" length="22.02" shape="1264.58,1960.49 1261.85,1962.39 1260.39,1966.40 1260.20,1972.52 1261.28,1980.75"/>
    </edge>
    <edge id=":athlone_35" function="internal">
        <lane id=":athlone_35_0" index="0" speed="10.00" length="22.90" shape="1264.58,1960.49 1261.61,1962.44 1259.62,1966.55 1258.62,1972.82 1258.59,1981.25"/>
    </edge>
    <edge id=":athlone_36" function="internal">
        <lane id=":athlone_36_0" index="0" speed="10.00" length="35.98" shape="1264.58,1960.49 1261.02,1963.19 1257.56,1969.49 1254.21,1979.39 1250.95,1992.87"/>
    </edge>
    <edge id=":athlone_37" function="internal">
        <lane id=":athlone_37_0" index="0" speed="10.00" length="31.06" shape="1264.58,1960.49 1259.42,1963.72 1252.56,1969.95 1246.03,1976.68 1241.85,1981.43"/>
    </edge>
    <edge id=":athlone_38" function="internal">
        <lane id=":athlone_38_0" index="0" speed="10.00" length="20.94" shape="1264.58,1960.49 1259.97,1961.00 1254.18,1960.83 1248.40,1960.18 1243.80,1959.24"/>
    </edge>
    <edge id=":athlone_39" function="internal">
        <lane id=":athlone_39_0" index="0" speed="10.00" length="45.59" shape="1264.58,1960.49 1258.87,1959.78 1250.79,1955.39 1240.33,1947.30 1227.51,1935.52"/>
    </edge>
    <edge id=":athlone_40" function="internal">
        <lane id=":athlone_40_0" index="0" speed="10.00" length="45.24" shape="1264.58,1960.49 1258.99,1959.63 1251.36,1954.76 1241.71,1945.87 1230.02,1932.96"/>
    </edge>
    <edge id=":athlone_41" function="internal">
        <lane id=":athlone_41_0" index="0" speed="5.44" length="9.96" shape="1264.58,1960.49 1262.35,1960.04 1260.28,1958.18 1259.06,1955.76 1259.34,1953.59"/>
    </edge>
    <edge id=":athlone_42" function="internal">
        <lane id=":athlone_42_0" index="0" speed="5.34" length="9.70" shape="1264.58,1960.49 1262.42,1960.02 1260.44,1958.17 1259.30,1955.77 1259.63,1953.68"/>
    </edge>
    <edge id=":athlone_43" function="internal">
        <lane id=":athlone_43_0" index="0" speed="4.52" length="7.33" shape="1264.58,1960.49 1263.10,1959.98 1261.92,1958.26 1261.45,1956.23 1262.06,1954.76"/>
    </edge>
    <edge id=":athlone_44" function="internal">
        <lane id=":athlone_44_0" index="0" speed="2.97" length="2.06" shape="1262.64,1955.01 1263.03,1954.45 1263.06,1954.22 1262.74,1954.32 1262.06,1954.76"/>
    </edge>
    <edge id=":athlone_45" function="internal">
        <lane id=":athlone_45_0" index="0" speed="10.00" length="27.91" shape="1262.64,1955.01 1261.37,1958.89 1262.26,1964.46 1265.30,1971.71 1270.50,1980.64"/>
    </edge>
    <edge id=":athlone_46" function="internal">
        <lane id=":athlone_46_0" index="0" speed="10.00" length="26.34" shape="1262.64,1955.01 1260.70,1959.02 1259.83,1964.65 1260.02,1971.89 1261.28,1980.75"/>
    </edge>
    <edge id=":athlone_47" function="internal">
        <lane id=":athlone_47_0" index="0" speed="10.00" length="26.74" shape="1262.64,1955.01 1260.68,1960.08 1259.38,1967.74 1258.69,1975.60 1258.59,1981.25"/>
    </edge>
    <edge id=":athlone_48" function="internal">