<?xml version="1.0" encoding="UTF-8"?>

<!-- generated on 2025-02-19 13:01:18 by Eclipse SUMO netconvert Version 1.18.0
<configuration xmlns:xsi="http://www.w3.org/2001/XMLSchema-instance" xsi:noNamespaceSchemaLocation="http://sumo.dlr.de/xsd/netconvertConfiguration.xsd">

    <input>
        <node-files value="nod.xml"/>
        <edge-files value="edge_xmls/09545.xml"/>
    </input>

    <output>
        <output-file value="networks/09545.net.xml"/>
    </output>

</configuration>
-->

<net version="1.16" junctionCornerDetail="5" limitTurnSpeed="5.50" xmlns:xsi="http://www.w3.org/2001/XMLSchema-instance" xsi:noNamespaceSchemaLocation="http://sumo.dlr.de/xsd/net_file.xsd">

    <location netOffset="-682.00,4368.00" convBoundary="0.00,0.00,2498.00,3881.00" origBoundary="682.00,-4368.00,3180.00,-487.00" projParameter="!"/>

    <edge id=":antrim_0" function="internal">
        <lane id=":antrim_0_0" index="0" speed="10.00" length="65.91" shape="2292.07,3438.00 2289.32,3464.42 2286.29,3483.90 2282.99,3496.45 2279.42,3502.07"/>
    </edge>
    <edge id=":antrim_1" function="internal">
        <lane id=":antrim_1_0" index="0" speed="10.00" length="69.13" shape="2292.07,3438.00 2288.90,3459.81 2282.71,3476.01 2272.17,3484.40 2255.97,3482.78"/>
    </edge>
    <edge id=":antrim_2" function="internal">
        <lane id=":antrim_2_0" index="0" speed="10.00" length="63.40" shape="2292.07,3438.00 2289.17,3457.68 2283.38,3472.50 2273.54,3479.67 2258.48,3476.35"/>
    </edge>
    <edge id=":antrim_3" function="internal">
        <lane id=":antrim_3_0" index="0" speed="10.00" length="52.42" shape="2292.07,3438.00 2284.92,3444.08 2269.49,3448.35 2253.04,3449.77 2242.82,3447.31"/>
    </edge>
    <edge id=":antrim_4" function="internal">
        <lane id=":antrim_4_0" index="0" speed="10.00" length="54.58" shape="2292.07,3438.00 2287.04,3451.91 2276.86,3458.93 2264.38,3458.33 2252.47,3449.33"/>
    </edge>
    <edge id=":antrim_5" function="internal">
        <lane id=":antrim_5_0" index="0" speed="7.95" length="26.59" shape="2292.07,3438.00 2288.63,3442.91 2281.52,3445.80 2274.12,3445.93 2269.78,3442.52"/>
    </edge>
    <edge id=":antrim_6" function="internal">
        <lane id=":antrim_6_0" index="0" speed="7.87" length="26.79" shape="2292.07,3438.00 2289.03,3444.43 2283.08,3447.34 2276.84,3446.29 2272.94,3440.82"/>
    </edge>
    <edge id=":antrim_7" function="internal">
        <lane id=":antrim_7_0" index="0" speed="6.66" length="19.05" shape="2292.07,3438.00 2289.49,3441.34 2284.20,3443.06 2278.84,3442.77 2276.01,3440.10"/>
    </edge>
    <edge id=":antrim_8" function="internal">
        <lane id=":antrim_8_0" index="0" speed="6.47" length="18.27" shape="2292.07,3438.00 2289.88,3442.28 2285.63,3444.10 2281.35,3443.22 2279.08,3439.37"/>
    </edge>
    <edge id=":antrim_9" function="internal">
        <lane id=":antrim_9_0" index="0" speed="5.73" length="14.18" shape="2292.07,3438.00 2290.33,3441.25 2286.95,3442.54 2283.61,3441.73 2282.00,3438.69"/>
    </edge>
    <edge id=":antrim_10" function="internal">
        <lane id=":antrim_10_0" index="0" speed="3.65" length="4.67" shape="2292.07,3438.00 2291.17,3439.12 2290.34,3439.45 2289.57,3438.99 2288.88,3437.72"/>
    </edge>
    <edge id=":antrim_11" function="internal">
        <lane id=":antrim_11_0" index="0" speed="3.12" length="2.71" shape="2288.70,3437.70 2288.69,3438.72 2288.72,3439.06 2288.78,3438.73 2288.88,3437.72"/>
    </edge>
    <edge id=":antrim_12" function="internal">
        <lane id=":antrim_12_0" index="0" speed="10.00" length="65.79" shape="2288.70,3437.70 2287.64,3464.12 2285.74,3483.66 2283.00,3496.31 2279.42,3502.07"/>
    </edge>
    <edge id=":antrim_13" function="internal">
        <lane id=":antrim_13_0" index="0" speed="10.00" length="68.02" shape="2288.70,3437.70 2287.00,3459.20 2281.93,3475.57 2272.07,3484.27 2255.97,3482.78"/>
    </edge>
    <edge id=":antrim_14" function="internal">
        <lane id=":antrim_14_0" index="0" speed="10.00" length="62.04" shape="2288.70,3437.70 2287.13,3457.02 2282.42,3472.00 2273.30,3479.49 2258.48,3476.35"/>
    </edge>
    <edge id=":antrim_15" function="internal">
        <lane id=":antrim_15_0" index="0" speed="10.00" length="49.38" shape="2288.70,3437.70 2282.33,3443.85 2268.03,3448.22 2252.59,3449.73 2242.82,3447.31"/>
    </edge>
    <edge id=":antrim_16" function="internal">
        <lane id=":antrim_16_0" index="0" speed="10.00" length="41.19" shape="2288.70,3437.70 2283.74,3444.25 2272.59,3449.46 2260.44,3451.70 2252.47,3449.33"/>
    </edge>
    <edge id=":antrim_17" function="internal">
        <lane id=":antrim_17_0" index="0" speed="7.33" length="22.90" shape="2288.70,3437.70 2285.96,3442.08 2279.92,3444.88 2273.53,3445.30 2269.78,3442.52"/>
    </edge>
    <edge id=":antrim_18" function="internal">
        <lane id=":antrim_18_0" index="0" speed="7.16" length="22.38" shape="2288.70,3437.70 2286.45,3443.18 2281.52,3445.87 2276.24,3445.25 2272.94,3440.82"/>
    </edge>
    <edge id=":antrim_19" function="internal">
        <lane id=":antrim_19_0" index="0" speed="5.96" length="15.23" shape="2288.70,3437.70 2286.78,3440.49 2282.59,3442.11 2278.28,3442.12 2276.01,3440.10"/>
    </edge>
    <edge id=":antrim_20" function="internal">
        <lane id=":antrim_20_0" index="0" speed="4.81" length="9.56" shape="2288.70,3437.70 2287.65,3439.98 2285.39,3441.02 2283.11,3440.65 2282.00,3438.69"/>
    </edge>
    <edge id=":antrim_21" function="internal">
        <lane id=":antrim_21_0" index="0" speed="5.74" length="14.27" shape="2288.70,3437.70 2286.93,3441.73 2284.73,3443.35 2282.11,3442.57 2279.08,3439.37"/>
    </edge>
    <edge id=":antrim_22" function="internal">
        <lane id=":antrim_22_0" index="0" speed="7.75" length="27.79" shape="2285.16,3437.94 2285.89,3448.18 2286.75,3451.56 2287.75,3448.07 2288.88,3437.72"/>
    </edge>
    <edge id=":antrim_23" function="internal">
        <lane id=":antrim_23_0" index="0" speed="10.00" length="65.33" shape="2285.16,3437.94 2285.86,3464.13 2285.14,3483.55 2282.99,3496.20 2279.42,3502.07"/>
    </edge>
    <edge id=":antrim_24" function="internal">
        <lane id=":antrim_24_0" index="0" speed="10.00" length="66.58" shape="2285.16,3437.94 2284.94,3458.89 2281.07,3475.26 2271.95,3484.19 2255.97,3482.78"/>
    </edge>
    <edge id=":antrim_25" function="internal">
        <lane id=":antrim_25_0" index="0" speed="10.00" length="59.65" shape="2285.16,3437.94 2284.75,3456.59 2280.91,3471.41 2272.53,3479.10 2258.48,3476.35"/>
    </edge>
    <edge id=":antrim_26" function="internal">
        <lane id=":antrim_26_0" index="0" speed="10.00" length="46.11" shape="2285.16,3437.94 2279.60,3444.04 2266.49,3448.33 2252.13,3449.77 2242.82,3447.31"/>
    </edge>
    <edge id=":antrim_27" function="internal">
        <lane id=":antrim_27_0" index="0" speed="9.86" length="38.09" shape="2285.16,3437.94 2281.01,3444.45 2271.05,3449.58 2259.97,3451.74 2252.47,3449.33"/>
    </edge>
    <edge id=":antrim_28" function="internal">
        <lane id=":antrim_28_0" index="0" speed="6.63" length="18.88" shape="2285.16,3437.94 2283.09,3441.63 2278.17,3444.15 2272.89,3444.71 2269.78,3442.52"/>
    </edge>
    <edge id=":antrim_29" function="internal">
        <lane id=":antrim_29_0" index="0" speed="6.35" length="17.58" shape="2285.16,3437.94 2283.62,3442.29 2279.78,3444.54 2275.57,3444.22 2272.94,3440.82"/>
    </edge>
    <edge id=":antrim_30" function="internal">
        <lane id=":antrim_30_0" index="0" speed="5.15" length="11.12" shape="2285.16,3437.94 2283.87,3440.04 2280.84,3441.35 2277.68,3441.51 2276.01,3440.10"/>
    </edge>
    <edge id=":antrim_31" function="internal">
        <lane id=":antrim_31_0" index="0" speed="4.07" length="6.25" shape="2285.16,3437.94 2279.08,3439.37"/>
    </edge>
    <edge id=":antrim_32" function="internal">
        <lane id=":antrim_32_0" index="0" speed="3.67" length="4.75" shape="2285.16,3437.94 2284.65,3439.32 2283.95,3439.90 2283.07,3439.69 2282.00,3438.69"/>
    </edge>
    <edge id=":antrim_33" function="internal">
        <lane id=":antrim_33_0" index="0" speed="6.69" length="20.37" shape="2279.88,3439.19 2281.17,3446.60 2281.95,3448.99 2282.23,3446.36 2282.00,3438.69"/>
    </edge>
    <edge id=":antrim_34" function="internal">
        <lane id=":antrim_34_0" index="0" speed="9.22" length="38.69" shape="2279.88,3439.19 2282.57,3452.79 2284.97,3457.08 2287.07,3452.06 2288.88,3437.72"/>
    </edge>
    <edge id=":antrim_35" function="internal">
        <lane id=":antrim_35_0" index="0" speed="10.00" length="64.17" shape="2279.88,3439.19 2283.20,3464.66 2284.23,3483.63 2282.97,3496.10 2279.42,3502.07"/>
    </edge>
    <edge id=":antrim_36" function="internal">
        <lane id=":antrim_36_0" index="0" speed="10.00" length="63.30" shape="2279.88,3439.19 2281.57,3458.89 2279.21,3474.88 2271.20,3483.93 2255.97,3482.78"/>
    </edge>
    <edge id=":antrim_37" function="internal">
        <lane id=":antrim_37_0" index="0" speed="10.00" length="55.40" shape="2279.88,3439.19 2281.05,3456.48 2278.46,3470.75 2271.24,3478.53 2258.48,3476.35"/>
    </edge>
    <edge id=":antrim_38" function="internal">
        <lane id=":antrim_38_0" index="0" speed="10.00" length="50.94" shape="2279.88,3439.19 2277.53,3451.36 2268.10,3456.70 2255.30,3455.31 2242.82,3447.31"/>
    </edge>
    <edge id=":antrim_39" function="internal">
        <lane id=":antrim_39_0" index="0" speed="9.85" length="39.76" shape="2279.88,3439.19 2278.07,3449.33 2270.90,3455.04 2261.36,3455.37 2252.47,3449.33"/>
    </edge>
    <edge id=":antrim_40" function="internal">
        <lane id=":antrim_40_0" index="0" speed="5.45" length="12.57" shape="2279.88,3439.19 2278.68,3441.66 2275.43,3443.44 2271.88,3443.92 2269.78,3442.52"/>
    </edge>
    <edge id=":antrim_41" function="internal">
        <lane id=":antrim_41_0" index="0" speed="4.92" length="10.06" shape="2279.88,3439.19 2279.18,3441.64 2276.98,3442.92 2274.50,3442.74 2272.94,3440.82"/>
    </edge>
    <edge id=":antrim_42" function="internal">
        <lane id=":antrim_42_0" index="0" speed="6.17" length="17.33" shape="2279.88,3439.19 2278.84,3432.80 2278.36,3430.70 2278.44,3432.89 2279.08,3439.37"/>
    </edge>
    <edge id=":antrim_43" function="internal">
        <lane id=":antrim_43_0" index="0" speed="3.95" length="5.82" shape="2279.88,3439.19 2279.26,3440.87 2278.40,3441.58 2277.32,3441.32 2276.01,3440.10"/>
    </edge>
    <edge id=":antrim_44" function="internal">
        <lane id=":antrim_44_0" index="0" speed="5.11" length="10.97" shape="2277.12,3439.84 2275.95,3435.92 2275.37,3434.65 2275.39,3436.05 2276.01,3440.10"/>
    </edge>
    <edge id=":antrim_45" function="internal">
        <lane id=":antrim_45_0" index="0" speed="4.39" length="7.34" shape="2277.12,3439.84 2276.32,3437.25 2275.85,3436.44 2275.73,3437.39 2275.94,3440.11"/>
    </edge>
    <edge id=":antrim_46" function="internal">
        <lane id=":antrim_46_0" index="0" speed="7.16" length="22.62" shape="2277.12,3439.84 2279.65,3447.65 2281.31,3450.07 2282.09,3447.08 2282.00,3438.69"/>
    </edge>
    <edge id=":antrim_47" function="internal">
        <lane id=":antrim_47_0" index="0" speed="9.01" length="35.18" shape="2277.12,3439.84 2281.17,3451.45 2284.48,3454.97 2287.05,3450.39 2288.88,3437.72"/>
    </edge>
    <edge id=":antrim_48" function="internal">
        <lane id=":antrim_48_0" index="0" speed="10.00" length="62.06" shape="2277.12,3439.84 2282.61,3462.84 2284.55,3480.43 2282.95,3492.58 2277.82,3499.30"/>
        <lane id=":antrim_48_1" index="1" speed="10.00" length="58.13" shape="2274.01,3440.57 2279.35,3462.51 2281.49,3479.16 2280.45,3490.50 2276.21,3496.54"/>
    </edge>
    <edge id=":antrim_50" function="internal">
        <lane id=":antrim_50_0" index="0" speed="10.00" length="59.28" shape="2274.01,3440.57 2277.46,3458.79 2276.53,3474.26 2269.82,3483.44 2255.97,3482.78"/>
    </edge>
    <edge id=":antrim_51" function="internal">
        <lane id=":antrim_51_0" index="0" speed="10.00" length="51.03" shape="2274.01,3440.57 2276.76,3456.38 2275.64,3470.06 2269.83,3477.95 2258.48,3476.35"/>
    </edge>
    <edge id=":antrim_52" function="internal">
        <lane id=":antrim_52_0" index="0" speed="9.31" length="35.62" shape="2274.01,3440.57 2271.03,3446.12 2261.65,3449.52 2250.66,3450.13 2242.82,3447.31"/>
    </edge>
    <edge id=":antrim_53" function="internal">
        <lane id=":antrim_53_0" index="0" speed="8.67" length="31.99" shape="2274.01,3440.57 2273.25,3448.60 2267.56,3453.40 2259.72,3453.98 2252.47,3449.33"/>
    </edge>
    <edge id=":antrim_54" function="internal">
        <lane id=":antrim_54_0" index="0" speed="7.41" length="26.06" shape="2274.01,3440.57 2271.29,3431.18 2270.21,3428.10 2270.76,3431.31 2272.94,3440.82"/>
    </edge>
    <edge id=":antrim_55" function="internal">
        <lane id=":antrim_55_0" index="0" speed="4.19" length="6.80" shape="2274.01,3440.57 2273.68,3442.64 2272.87,3443.66 2271.57,3443.62 2269.78,3442.52"/>
    </edge>
    <edge id=":antrim_56" function="internal">
        <lane id=":antrim_56_0" index="0" speed="5.51" length="13.18" shape="2268.70,3442.96 2270.64,3447.47 2271.47,3448.90 2271.18,3447.25 2269.78,3442.52"/>
    </edge>
    <edge id=":antrim_57" function="internal">
        <lane id=":antrim_57_0" index="0" speed="8.05" length="29.88" shape="2268.70,3442.96 2273.14,3452.92 2275.32,3455.88 2275.25,3451.85 2272.94,3440.82"/>
    </edge>
    <edge id=":antrim_58" function="internal">
        <lane id=":antrim_58_0" index="0" speed="8.90" length="36.10" shape="2268.70,3442.96 2274.15,3454.85 2277.18,3458.34 2277.80,3453.42 2276.01,3440.10"/>
    </edge>
    <edge id=":antrim_59" function="internal">
        <lane id=":antrim_59_0" index="0" speed="8.02" length="28.27" shape="2268.70,3442.96 2272.97,3452.02 2275.60,3454.56 2276.59,3450.60 2275.94,3440.11"/>
    </edge>
    <edge id=":antrim_60" function="internal">
        <lane id=":antrim_60_0" index="0" speed="9.88" length="42.98" shape="2268.70,3442.96 2275.26,3456.54 2279.66,3460.35 2281.90,3454.40 2282.00,3438.69"/>
    </edge>
    <edge id=":antrim_61" function="internal">
        <lane id=":antrim_61_0" index="0" speed="10.00" length="48.34" shape="2268.70,3442.96 2276.07,3457.40 2281.88,3461.34 2286.16,3454.78 2288.88,3437.72"/>
    </edge>
    <edge id=":antrim_62" function="internal">
        <lane id=":antrim_62_0" index="0" speed="10.00" length="59.43" shape="2268.70,3442.96 2276.97,3465.12 2281.25,3481.90 2281.53,3493.29 2277.82,3499.30"/>
    </edge>
    <edge id=":antrim_63" function="internal">
        <lane id=":antrim_63_0" index="0" speed="10.00" length="41.28" shape="2268.70,3442.96 2269.49,3452.63 2267.30,3465.64 2262.92,3476.52 2257.12,3479.79"/>
    </edge>
    <edge id=":antrim_64" function="internal">
        <lane id=":antrim_64_0" index="0" speed="9.99" length="37.90" shape="2268.70,3442.96 2269.64,3452.23 2267.81,3464.29 2263.87,3474.03 2258.48,3476.35"/>
    </edge>
    <edge id=":antrim_65" function="internal">
        <lane id=":antrim_65_0" index="0" speed="8.46" length="30.45" shape="2268.70,3442.96 2266.93,3447.93 2259.31,3450.51 2249.92,3450.40 2242.82,3447.31"/>
    </edge>
    <edge id=":antrim_66" function="internal">
        <lane id=":antrim_66_0" index="0" speed="6.91" length="20.47" shape="2268.70,3442.96 2267.61,3446.86 2262.77,3449.87 2256.84,3451.01 2252.47,3449.33"/>
    </edge>
    <edge id=":antrim_67" function="internal">
        <lane id=":antrim_67_0" index="0" speed="9.73" length="42.22" shape="2257.47,3445.44 2267.21,3458.07 2272.51,3461.80 2273.36,3456.61 2269.78,3442.52"/>
    </edge>
    <edge id=":antrim_68" function="internal">
        <lane id=":antrim_68_0" index="0" speed="10.00" length="45.57" shape="2257.47,3445.44 2267.83,3458.57 2273.86,3462.18 2275.56,3456.26 2272.94,3440.82"/>
    </edge>
    <edge id=":antrim_69" function="internal">
        <lane id=":antrim_69_0" index="0" speed="10.00" length="47.85" shape="2257.47,3445.44 2268.29,3458.90 2274.98,3462.50 2277.55,3456.23 2276.01,3440.10"/>
    </edge>
    <edge id=":antrim_70" function="internal">
        <lane id=":antrim_70_0" index="0" speed="10.00" length="42.88" shape="2257.47,3445.44 2267.06,3457.15 2273.33,3460.17 2276.29,3454.49 2275.94,3440.11"/>
    </edge>
    <edge id=":antrim_71" function="internal">
        <lane id=":antrim_71_0" index="0" speed="10.00" length="52.09" shape="2257.47,3445.44 2269.01,3459.31 2276.94,3462.81 2281.27,3455.93 2282.00,3438.69"/>
    </edge>
    <edge id=":antrim_72" function="internal">
        <lane id=":antrim_72_0" index="0" speed="10.00" length="56.67" shape="2257.47,3445.44 2269.68,3459.60 2278.98,3463.03 2285.38,3455.74 2288.88,3437.72"/>
    </edge>
    <edge id=":antrim_73" function="internal">
        <lane id=":antrim_73_0" index="0" speed="10.00" length="60.81" shape="2257.47,3445.44 2271.00,3466.32 2278.90,3482.26 2281.17,3493.25 2277.82,3499.30"/>
    </edge>
    <edge id=":antrim_74" function="internal">
        <lane id=":antrim_74_0" index="0" speed="9.71" length="37.30" shape="2257.47,3445.44 2260.74,3454.32 2262.33,3466.53 2261.40,3476.78 2257.12,3479.79"/>
    </edge>
    <edge id=":antrim_75" function="internal">
        <lane id=":antrim_75_0" index="0" speed="9.95" length="41.33" shape="2257.47,3445.44 2263.93,3457.33 2267.38,3469.17 2266.12,3476.87 2258.48,3476.35"/>
    </edge>
    <edge id=":antrim_76" function="internal">
        <lane id=":antrim_76_0" index="0" speed="6.76" length="20.37" shape="2257.47,3445.44 2257.98,3449.39 2254.07,3451.09 2248.20,3450.43 2242.82,3447.31"/>
    </edge>
    <edge id=":antrim_77" function="internal">
        <lane id=":antrim_77_0" index="0" speed="4.09" length="6.34" shape="2257.47,3445.44 2252.47,3449.33"/>
    </edge>
    <edge id=":antrim_78" function="internal">
        <lane id=":antrim_78_0" index="0" speed="9.99" length="43.93" shape="2255.83,3446.72 2266.42,3459.23 2272.28,3462.70 2273.39,3457.13 2269.78,3442.52"/>
    </edge>
    <edge id=":antrim_79" function="internal">
        <lane id=":antrim_79_0" index="0" speed="10.00" length="46.98" shape="2255.83,3446.72 2266.97,3459.59 2273.54,3462.90 2275.53,3456.64 2272.94,3440.82"/>
    </edge>
    <edge id=":antrim_80" function="internal">
        <lane id=":antrim_80_0" index="0" speed="10.00" length="49.12" shape="2255.83,3446.72 2267.40,3459.85 2274.62,3463.13 2277.49,3456.54 2276.01,3440.10"/>
    </edge>
    <edge id=":antrim_81" function="internal">
        <lane id=":antrim_81_0" index="0" speed="10.00" length="44.51" shape="2255.83,3446.72 2266.17,3458.24 2272.97,3460.98 2276.23,3454.94 2275.94,3440.11"/>
    </edge>
    <edge id=":antrim_82" function="internal">
        <lane id=":antrim_82_0" index="0" speed="10.00" length="53.24" shape="2255.83,3446.72 2268.09,3460.17 2276.53,3463.32 2281.17,3456.16 2282.00,3438.69"/>
    </edge>
    <edge id=":antrim_83" function="internal">
        <lane id=":antrim_83_0" index="0" speed="10.00" length="57.77" shape="2255.83,3446.72 2268.74,3460.41 2278.56,3463.48 2285.27,3455.91 2288.88,3437.72"/>
    </edge>
    <edge id=":antrim_84" function="internal">
        <lane id=":antrim_84_0" index="0" speed="10.00" length="57.43" shape="2255.83,3446.72 2268.08,3463.71 2276.61,3478.34 2279.85,3489.62 2276.21,3496.54"/>
    </edge>
    <edge id=":antrim_85" function="internal">
        <lane id=":antrim_85_0" index="0" speed="9.49" length="36.13" shape="2255.83,3446.72 2259.47,3455.31 2261.61,3467.09 2261.18,3476.95 2257.12,3479.79"/>
    </edge>
    <edge id=":antrim_86" function="internal">
        <lane id=":antrim_86_0" index="0" speed="8.87" length="32.98" shape="2255.83,3446.72 2259.62,3454.91 2262.12,3465.74 2262.14,3474.46 2258.48,3476.35"/>
    </edge>
    <edge id=":antrim_87" function="internal">
        <lane id=":antrim_87_0" index="0" speed="6.33" length="17.88" shape="2255.83,3446.72 2256.35,3449.96 2252.87,3451.11 2247.61,3450.20 2242.82,3447.31"/>
    </edge>
    <edge id=":antrim_88" function="internal">
        <lane id=":antrim_88_0" index="0" speed="4.04" length="6.21" shape="2255.83,3446.72 2255.96,3448.63 2255.45,3449.70 2254.29,3449.93 2252.47,3449.33"/>
    </edge>
    <edge id=":antrim_89" function="internal">
        <lane id=":antrim_89_0" index="0" speed="8.32" length="32.36" shape="2243.91,3446.24 2254.17,3455.80 2259.02,3459.50 2258.45,3457.35 2252.47,3449.33"/>
    </edge>
    <edge id=":antrim_90" function="internal">
        <lane id=":antrim_90_0" index="0" speed="10.00" length="54.25" shape="2243.91,3446.24 2260.04,3459.98 2269.72,3463.94 2272.97,3458.12 2269.78,3442.52"/>
    </edge>
    <edge id=":antrim_91" function="internal">
        <lane id=":antrim_91_0" index="0" speed="10.00" length="56.91" shape="2243.91,3446.24 2260.45,3460.09 2270.81,3463.80 2274.97,3457.38 2272.94,3440.82"/>
    </edge>
    <edge id=":antrim_92" function="internal">
        <lane id=":antrim_92_0" index="0" speed="10.00" length="58.91" shape="2243.91,3446.24 2260.80,3460.19 2271.78,3463.82 2276.85,3457.12 2276.01,3440.10"/>
    </edge>
    <edge id=":antrim_93" function="internal">
        <lane id=":antrim_93_0" index="0" speed="10.00" length="55.45" shape="2243.91,3446.24 2259.58,3459.02 2270.14,3462.26 2275.59,3455.96 2275.94,3440.11"/>
    </edge>
    <edge id=":antrim_94" function="internal">
        <lane id=":antrim_94_0" index="0" speed="10.00" length="63.00" shape="2243.91,3446.24 2261.40,3460.32 2273.58,3463.76 2280.45,3456.55 2282.00,3438.69"/>
    </edge>
    <edge id=":antrim_95" function="internal">
        <lane id=":antrim_95_0" index="0" speed="10.00" length="67.64" shape="2243.91,3446.24 2262.02,3460.44 2275.55,3463.75 2284.50,3456.18 2288.88,3437.72"/>
    </edge>
    <edge id=":antrim_96" function="internal">
        <lane id=":antrim_96_0" index="0" speed="10.00" length="63.58" shape="2243.91,3446.24 2260.50,3462.97 2272.91,3477.77 2278.89,3489.38 2276.21,3496.54"/>
    </edge>
    <edge id=":antrim_97" function="internal">
        <lane id=":antrim_97_0" index="0" speed="10.00" length="47.95" shape="2243.91,3446.24 2254.70,3458.34 2262.95,3470.89 2264.99,3479.49 2257.12,3479.79"/>
    </edge>
    <edge id=":antrim_98" function="internal">
        <lane id=":antrim_98_0" index="0" speed="8.93" length="35.54" shape="2243.91,3446.24 2249.99,3454.13 2256.55,3465.16 2260.42,3474.26 2258.48,3476.35"/>
    </edge>
    <edge id=":antrim_99" function="internal">
        <lane id=":antrim_99_0" index="0" speed="2.95" length="2.22" shape="2243.91,3446.24 2244.04,3446.91 2243.90,3447.32 2243.49,3447.45 2242.82,3447.31"/>
    </edge>
    <edge id=":antrim_100" function="internal">
        <lane id=":antrim_100_0" index="0" speed="9.76" length="42.40" shape="2259.96,3473.52 2265.54,3475.37 2264.55,3471.62 2256.98,3462.27 2242.82,3447.31"/>
    </edge>
    <edge id=":antrim_101" function="internal">
        <lane id=":antrim_101_0" index="0" speed="9.58" length="39.10" shape="2259.96,3473.52 2267.02,3475.96 2268.13,3472.74 2263.28,3463.86 2252.47,3449.33"/>
    </edge>
    <edge id=":antrim_102" function="internal">
        <lane id=":antrim_102_0" index="0" speed="10.00" length="46.07" shape="2259.96,3473.52 2269.33,3476.18 2274.09,3471.90 2274.24,3460.68 2269.78,3442.52"/>
    </edge>
    <edge id=":antrim_103" function="internal">
        <lane id=":antrim_103_0" index="0" speed="10.00" length="48.17" shape="2259.96,3473.52 2269.65,3476.13 2275.04,3471.56 2276.14,3459.79 2272.94,3440.82"/>
    </edge>
    <edge id=":antrim_104" function="internal">
        <lane id=":antrim_104_0" index="0" speed="10.00" length="49.54" shape="2259.96,3473.52 2269.93,3476.14 2275.93,3471.44 2277.96,3459.43 2276.01,3440.10"/>
    </edge>
    <edge id=":antrim_105" function="internal">
        <lane id=":antrim_105_0" index="0" speed="10.00" length="51.05" shape="2259.96,3473.52 2270.20,3476.13 2276.80,3471.32 2279.76,3459.06 2279.08,3439.37"/>
    </edge>
    <edge id=":antrim_106" function="internal">
        <lane id=":antrim_106_0" index="0" speed="10.00" length="52.61" shape="2259.96,3473.52 2270.45,3476.13 2277.62,3471.19 2281.47,3458.71 2282.00,3438.69"/>
    </edge>
    <edge id=":antrim_107" function="internal">
        <lane id=":antrim_107_0" index="0" speed="10.00" length="56.20" shape="2259.96,3473.52 2271.01,3476.13 2279.52,3471.04 2285.47,3458.24 2288.88,3437.72"/>
    </edge>
    <edge id=":antrim_108" function="internal">
        <lane id=":antrim_108_0" index="0" speed="10.00" length="34.31" shape="2259.96,3473.52 2269.88,3479.29 2277.37,3485.38 2280.22,3491.29 2276.21,3496.54"/>
    </edge>
    <edge id=":antrim_109" function="internal">
        <lane id=":antrim_109_0" index="0" speed="4.87" length="9.69" shape="2259.96,3473.52 2261.45,3475.44 2261.15,3477.83 2259.55,3479.63 2257.12,3479.79"/>
    </edge>
    <edge id=":antrim_110" function="internal">
        <lane id=":antrim_110_0" index="0" speed="3.65" length="4.67" shape="2259.96,3473.52 2260.65,3474.78 2260.64,3475.67 2259.91,3476.20 2258.48,3476.35"/>
    </edge>
    <edge id=":antrim_111" function="internal">
        <lane id=":antrim_111_0" index="0" speed="3.56" length="4.14" shape="2258.24,3476.79 2259.70,3477.31 2260.23,3477.41 2259.82,3477.09 2258.48,3476.35"/>
    </edge>
    <edge id=":antrim_112" function="internal">
        <lane id=":antrim_112_0" index="0" speed="10.00" length="46.19" shape="2258.24,3476.79 2265.35,3478.00 2265.15,3473.49 2257.64,3463.26 2242.82,3447.31"/>
    </edge>
    <edge id=":antrim_113" function="internal">
        <lane id=":antrim_113_0" index="0" speed="10.00" length="42.42" shape="2258.24,3476.79 2266.47,3478.32 2268.25,3474.26 2263.58,3464.59 2252.47,3449.33"/>
    </edge>
    <edge id=":antrim_114" function="internal">
        <lane id=":antrim_114_0" index="0" speed="10.00" length="48.76" shape="2258.24,3476.79 2268.43,3478.23 2273.75,3473.00 2274.20,3461.09 2269.78,3442.52"/>
    </edge>
    <edge id=":antrim_115" function="internal">
        <lane id=":antrim_115_0" index="0" speed="10.00" length="50.84" shape="2258.24,3476.79 2268.72,3478.16 2274.67,3472.62 2276.07,3460.18 2272.94,3440.82"/>
    </edge>
    <edge id=":antrim_116" function="internal">
        <lane id=":antrim_116_0" index="0" speed="10.00" length="52.18" shape="2258.24,3476.79 2268.99,3478.15 2275.54,3472.48 2277.88,3459.80 2276.01,3440.10"/>
    </edge>
    <edge id=":antrim_117" function="internal">
        <lane id=":antrim_117_0" index="0" speed="10.00" length="53.67" shape="2258.24,3476.79 2269.25,3478.13 2276.40,3472.33 2279.67,3459.42 2279.08,3439.37"/>
    </edge>
    <edge id=":antrim_118" function="internal">
        <lane id=":antrim_118_0" index="0" speed="10.00" length="55.21" shape="2258.24,3476.79 2269.49,3478.11 2277.20,3472.19 2281.37,3459.05 2282.00,3438.69"/>
    </edge>
    <edge id=":antrim_119" function="internal">
        <lane id=":antrim_119_0" index="0" speed="10.00" length="58.74" shape="2258.24,3476.79 2270.03,3478.09 2279.07,3472.01 2285.36,3458.55 2288.88,3437.72"/>
    </edge>
    <edge id=":antrim_120" function="internal">
        <lane id=":antrim_120_0" index="0" speed="9.83" length="33.42" shape="2258.24,3476.79 2268.48,3481.17 2276.65,3486.18 2280.10,3491.43 2276.21,3496.54"/>
    </edge>
    <edge id=":antrim_121" function="internal">
        <lane id=":antrim_121_0" index="0" speed="3.65" length="4.67" shape="2258.24,3476.79 2259.08,3477.96 2259.18,3478.85 2258.52,3479.46 2257.12,3479.79"/>
    </edge>
    <edge id=":athlone_0" function="internal">
        <lane id=":athlone_0_0" index="0" speed="10.00" length="41.31" shape="1260.24,2011.45 1256.52,1992.86 1253.20,1980.42 1250.26,1974.14 1247.72,1974.02"/>
    </edge>
    <edge id=":athlone_1" function="internal">
        <lane id=":athlone_1_0" index="0" speed="10.00" length="82.79" shape="1260.24,2011.45 1254.88,1995.93 1244.55,1971.10 1233.89,1947.47 1227.51,1935.52"/>
    </edge>
    <edge id=":athlone_2" function="internal">
        <lane id=":athlone_2_0" index="0" speed="10.00" length="84.04" shape="1260.24,2011.45 1255.24,1995.59 1245.73,1970.00 1235.94,1945.54 1230.12,1933.08"/>
    </edge>
    <edge id=":athlone_3" function="internal">
        <lane id=":athlone_3_0" index="0" speed="10.00" length="91.88" shape="1260.24,2011.45 1258.27,1988.33 1260.86,1966.05 1268.01,1944.64 1279.74,1924.08"/>
    </edge>
    <edge id=":athlone_4" function="internal">
        <lane id=":athlone_4_0" index="0" speed="10.00" length="91.79" shape="1260.24,2011.45 1258.37,1988.25 1261.34,1966.11 1269.14,1945.02 1281.77,1924.99"/>
    </edge>
    <edge id=":athlone_5" function="internal">
        <lane id=":athlone_5_0" index="0" speed="10.00" length="68.19" shape="1260.24,2011.45 1257.41,1987.51 1258.58,1969.10 1263.75,1956.21 1272.92,1948.86"/>
        <lane id=":athlone_5_1" index="1" speed="10.00" length="63.89" shape="1263.39,2010.88 1260.61,1988.12 1261.48,1970.68 1265.98,1958.58 1274.13,1951.82"/>
    </edge>
    <edge id=":athlone_7" function="internal">
        <lane id=":athlone_7_0" index="0" speed="10.00" length="53.30" shape="1263.39,2010.88 1260.50,1991.81 1259.73,1975.77 1262.22,1965.35 1269.10,1963.12"/>
    </edge>
    <edge id=":athlone_8" function="internal">
        <lane id=":athlone_8_0" index="0" speed="10.00" length="45.17" shape="1263.39,2010.88 1261.79,1995.95 1262.49,1982.32 1266.18,1974.84 1273.54,1978.35"/>
    </edge>
    <edge id=":athlone_9" function="internal">
        <lane id=":athlone_9_0" index="0" speed="9.78" length="41.27" shape="1263.39,2010.88 1261.90,1996.95 1262.30,1983.95 1265.03,1976.86 1270.50,1980.65"/>
    </edge>
    <edge id=":athlone_10" function="internal">
        <lane id=":athlone_10_0" index="0" speed="8.08" length="28.02" shape="1263.39,2010.88 1264.57,2003.39 1269.55,1998.45 1275.96,1997.42 1281.45,2001.65"/>
    </edge>
    <edge id=":athlone_11" function="internal">