<?xml version="1.0" encoding="UTF-8"?>

<!-- generated on 2025-02-19 13:01:56 by Eclipse SUMO netconvert Version 1.18.0
<configuration xmlns:xsi="http://www.w3.org/2001/XMLSchema-instance" xsi:noNamespaceSchemaLocation="http://sumo.dlr.de/xsd/netconvertConfiguration.xsd">

    <input>
        <node-files value="nod.xml"/>
        <edge-files value="edge_xmls/09574.xml"/>
    </input>

    <output>
        <output-file value="networks/09574.net.xml"/>
    </output>

</configuration>
-->

<net version="1.16" junctionCornerDetail="5" limitTurnSpeed="5.50" xmlns:xsi="http://www.w3.org/2001/XMLSchema-instance" xsi:noNamespaceSchemaLocation="http://sumo.dlr.de/xsd/net_file.xsd">

    <location netOffset="-682.00,4368.00" convBoundary="0.00,0.00,2498.00,3881.00" origBoundary="682.00,-4368.00,3180.00,-487.00" projParameter="!"/>

    <edge id=":antrim_0" function="internal">
        <lane id=":antrim_0_0" index="0" speed="10.00" length="48.38" shape="2293.64,3486.22 2285.01,3486.94 2269.81,3485.92 2254.50,3484.23 2245.51,3482.96"/>
    </edge>
    <edge id=":antrim_1" function="internal">
        <lane id=":antrim_1_0" index="0" speed="10.00" length="47.82" shape="2293.64,3486.22 2286.64,3488.30 2276.60,3487.88 2263.50,3484.95 2247.35,3479.52"/>
    </edge>
    <edge id=":antrim_2" function="internal">
        <lane id=":antrim_2_0" index="0" speed="10.00" length="42.63" shape="2293.64,3486.22 2288.30,3487.18 2279.88,3485.44 2268.36,3481.00 2253.75,3473.87"/>
    </edge>
    <edge id=":antrim_3" function="internal">
        <lane id=":antrim_3_0" index="0" speed="10.00" length="40.01" shape="2293.64,3486.22 2288.54,3486.95 2281.00,3484.42 2271.02,3478.63 2258.60,3469.58"/>
    </edge>
    <edge id=":antrim_4" function="internal">
        <lane id=":antrim_4_0" index="0" speed="10.00" length="38.20" shape="2293.64,3486.22 2288.81,3486.69 2282.33,3483.21 2274.21,3475.79 2264.44,3464.41"/>
    </edge>
    <edge id=":antrim_5" function="internal">
        <lane id=":antrim_5_0" index="0" speed="10.00" length="38.19" shape="2293.64,3486.22 2288.81,3486.69 2282.34,3483.20 2274.23,3475.77 2264.48,3464.38"/>
    </edge>
    <edge id=":antrim_6" function="internal">
        <lane id=":antrim_6_0" index="0" speed="10.00" length="39.63" shape="2293.64,3486.22 2287.65,3487.43 2280.47,3484.48 2272.10,3477.37 2262.54,3466.10"/>
    </edge>
    <edge id=":antrim_7" function="internal">
        <lane id=":antrim_7_0" index="0" speed="10.00" length="36.25" shape="2293.64,3486.22 2289.32,3483.82 2282.61,3476.06 2275.83,3466.41 2271.33,3458.33"/>
    </edge>
    <edge id=":antrim_8" function="internal">
        <lane id=":antrim_8_0" index="0" speed="10.00" length="36.26" shape="2293.64,3486.22 2289.34,3483.80 2282.68,3475.99 2275.97,3466.28 2271.52,3458.16"/>
    </edge>
    <edge id=":antrim_9" function="internal">
        <lane id=":antrim_9_0" index="0" speed="10.00" length="36.30" shape="2293.64,3486.22 2289.39,3483.75 2282.85,3475.82 2276.28,3465.98 2271.96,3457.77"/>
    </edge>
    <edge id=":antrim_10" function="internal">
        <lane id=":antrim_10_0" index="0" speed="10.00" length="36.61" shape="2293.64,3486.22 2289.61,3483.50 2283.62,3475.00 2277.74,3464.55 2273.99,3455.98"/>
    </edge>
    <edge id=":antrim_11" function="internal">
        <lane id=":antrim_11_0" index="0" speed="10.00" length="36.79" shape="2293.64,3486.22 2289.70,3483.40 2283.95,3474.67 2278.33,3463.97 2274.82,3455.25"/>
    </edge>
    <edge id=":antrim_12" function="internal">
        <lane id=":antrim_12_0" index="0" speed="10.00" length="37.12" shape="2293.64,3486.22 2289.85,3483.24 2284.45,3474.14 2279.25,3463.06 2276.09,3454.12"/>
    </edge>
    <edge id=":antrim_13" function="internal">
        <lane id=":antrim_13_0" index="0" speed="10.00" length="37.99" shape="2293.64,3486.22 2290.16,3482.90 2285.46,3473.07 2281.10,3461.23 2278.62,3451.89"/>
    </edge>
    <edge id=":antrim_14" function="internal">
        <lane id=":antrim_14_0" index="0" speed="10.00" length="38.70" shape="2293.64,3486.22 2290.36,3482.68 2286.13,3472.36 2282.31,3460.02 2280.26,3450.44"/>
    </edge>
    <edge id=":antrim_15" function="internal">
        <lane id=":antrim_15_0" index="0" speed="10.00" length="40.45" shape="2293.64,3486.22 2290.81,3482.21 2287.54,3470.88 2284.82,3457.55 2283.61,3447.48"/>
    </edge>
    <edge id=":antrim_16" function="internal">
        <lane id=":antrim_16_0" index="0" speed="10.00" length="64.33" shape="2291.88,3440.17 2285.54,3450.83 2271.68,3465.51 2256.33,3478.22 2245.51,3482.96"/>
    </edge>
    <edge id=":antrim_17" function="internal">
        <lane id=":antrim_17_0" index="0" speed="10.00" length="60.93" shape="2291.88,3440.17 2285.76,3450.50 2272.44,3464.35 2257.71,3475.94 2247.35,3479.52"/>
    </edge>
    <edge id=":antrim_18" function="internal">
        <lane id=":antrim_18_0" index="0" speed="10.00" length="52.74" shape="2291.88,3440.17 2286.70,3449.75 2275.47,3461.89 2262.92,3471.59 2253.75,3473.87"/>
    </edge>
    <edge id=":antrim_19" function="internal">
        <lane id=":antrim_19_0" index="0" speed="10.00" length="46.70" shape="2291.88,3440.17 2287.34,3449.27 2277.57,3460.25 2266.64,3468.54 2258.60,3469.58"/>
    </edge>
    <edge id=":antrim_20" function="internal">
        <lane id=":antrim_20_0" index="0" speed="10.00" length="39.52" shape="2291.88,3440.17 2288.04,3448.67 2279.94,3458.22 2270.95,3464.81 2264.44,3464.41"/>
    </edge>
    <edge id=":antrim_21" function="internal">
        <lane id=":antrim_21_0" index="0" speed="10.00" length="39.47" shape="2291.88,3440.17 2288.05,3448.67 2279.96,3458.21 2270.98,3464.78 2264.48,3464.38"/>
    </edge>
    <edge id=":antrim_22" function="internal">
        <lane id=":antrim_22_0" index="0" speed="10.00" length="41.92" shape="2291.88,3440.17 2287.73,3448.95 2278.94,3459.11 2269.28,3466.28 2262.54,3466.10"/>
    </edge>
    <edge id=":antrim_23" function="internal">
        <lane id=":antrim_23_0" index="0" speed="8.73" length="31.28" shape="2291.88,3440.17 2288.83,3447.90 2282.61,3455.64 2275.89,3460.19 2271.33,3458.33"/>
    </edge>
    <edge id=":antrim_24" function="internal">
        <lane id=":antrim_24_0" index="0" speed="8.69" length="31.06" shape="2291.88,3440.17 2288.85,3447.87 2282.68,3455.57 2276.03,3460.06 2271.52,3458.16"/>
    </edge>
    <edge id=":antrim_25" function="internal">
        <lane id=":antrim_25_0" index="0" speed="8.59" length="30.53" shape="2291.88,3440.17 2288.90,3447.80 2282.85,3455.37 2276.34,3459.74 2271.96,3457.77"/>
    </edge>
    <edge id=":antrim_26" function="internal">
        <lane id=":antrim_26_0" index="0" speed="8.06" length="27.44" shape="2291.88,3440.17 2289.13,3447.05 2283.57,3453.90 2277.69,3457.83 2273.99,3455.98"/>
    </edge>
    <edge id=":antrim_27" function="internal">
        <lane id=":antrim_27_0" index="0" speed="7.85" length="26.17" shape="2291.88,3440.17 2289.22,3446.74 2283.87,3453.28 2278.26,3457.03 2274.82,3455.25"/>
    </edge>
    <edge id=":antrim_28" function="internal">
        <lane id=":antrim_28_0" index="0" speed="7.51" length="24.22" shape="2291.88,3440.17 2289.38,3446.26 2284.36,3452.33 2279.16,3455.81 2276.09,3454.12"/>
    </edge>
    <edge id=":antrim_29" function="internal">
        <lane id=":antrim_29_0" index="0" speed="6.84" length="20.34" shape="2291.88,3440.17 2289.72,3445.30 2285.40,3450.42 2281.00,3453.34 2278.62,3451.89"/>
    </edge>
    <edge id=":antrim_30" function="internal">
        <lane id=":antrim_30_0" index="0" speed="6.39" length="17.80" shape="2291.88,3440.17 2289.95,3444.67 2286.11,3449.16 2282.25,3451.72 2280.26,3450.44"/>
    </edge>
    <edge id=":antrim_31" function="internal">
        <lane id=":antrim_31_0" index="0" speed="5.43" length="12.66" shape="2291.88,3440.17 2290.46,3443.38 2287.65,3446.58 2284.88,3448.41 2283.61,3447.48"/>
    </edge>
    <edge id=":antrim_32" function="internal">
        <lane id=":antrim_32_0" index="0" speed="10.00" length="60.10" shape="2288.59,3443.08 2283.00,3453.29 2270.25,3466.97 2255.90,3478.68 2245.51,3482.96"/>
    </edge>
    <edge id=":antrim_33" function="internal">
        <lane id=":antrim_33_0" index="0" speed="10.00" length="56.72" shape="2288.59,3443.08 2283.23,3452.96 2271.02,3465.81 2257.27,3476.40 2247.35,3479.52"/>
    </edge>
    <edge id=":antrim_34" function="internal">
        <lane id=":antrim_34_0" index="0" speed="10.00" length="48.59" shape="2288.59,3443.08 2284.17,3452.22 2274.05,3463.36 2262.48,3472.05 2253.75,3473.87"/>
    </edge>
    <edge id=":antrim_35" function="internal">
        <lane id=":antrim_35_0" index="0" speed="10.00" length="42.62" shape="2288.59,3443.08 2284.81,3451.74 2276.15,3461.72 2266.21,3469.00 2258.60,3469.58"/>
    </edge>
    <edge id=":antrim_36" function="internal">
        <lane id=":antrim_36_0" index="0" speed="9.69" length="35.56" shape="2288.59,3443.08 2285.51,3451.14 2278.52,3459.69 2270.52,3465.27 2264.44,3464.41"/>
    </edge>
    <edge id=":antrim_37" function="internal">
        <lane id=":antrim_37_0" index="0" speed="9.68" length="35.51" shape="2288.59,3443.08 2285.52,3451.14 2278.53,3459.68 2270.55,3465.24 2264.48,3464.38"/>
    </edge>
    <edge id=":antrim_38" function="internal">
        <lane id=":antrim_38_0" index="0" speed="9.95" length="37.93" shape="2288.59,3443.08 2285.19,3451.42 2277.51,3460.57 2268.85,3466.74 2262.54,3466.10"/>
    </edge>
    <edge id=":antrim_39" function="internal">
        <lane id=":antrim_39_0" index="0" speed="7.99" length="26.55" shape="2288.59,3443.08 2286.24,3449.69 2281.02,3456.23 2275.26,3460.01 2271.33,3458.33"/>
    </edge>
    <edge id=":antrim_40" function="internal">
        <lane id=":antrim_40_0" index="0" speed="7.93" length="26.26" shape="2288.59,3443.08 2286.26,3449.62 2281.08,3456.10 2275.39,3459.83 2271.52,3458.16"/>
    </edge>
    <edge id=":antrim_41" function="internal">
        <lane id=":antrim_41_0" index="0" speed="7.82" length="25.59" shape="2288.59,3443.08 2286.31,3449.46 2281.23,3455.78 2275.68,3459.42 2271.96,3457.77"/>
    </edge>
    <edge id=":antrim_42" function="internal">
        <lane id=":antrim_42_0" index="0" speed="7.27" length="22.48" shape="2288.59,3443.08 2286.52,3448.71 2281.96,3454.29 2277.07,3457.49 2273.99,3455.98"/>
    </edge>
    <edge id=":antrim_43" function="internal">
        <lane id=":antrim_43_0" index="0" speed="7.04" length="21.21" shape="2288.59,3443.08 2286.62,3448.39 2282.28,3453.67 2277.65,3456.69 2274.82,3455.25"/>
    </edge>
    <edge id=":antrim_44" function="internal">
        <lane id=":antrim_44_0" index="0" speed="6.69" length="19.25" shape="2288.59,3443.08 2286.77,3447.91 2282.78,3452.71 2278.57,3455.46 2276.09,3454.12"/>
    </edge>
    <edge id=":antrim_45" function="internal">
        <lane id=":antrim_45_0" index="0" speed="5.48" length="12.81" shape="2288.59,3443.08 2287.31,3446.31 2284.54,3449.53 2281.72,3451.36 2280.26,3450.44"/>
    </edge>
    <edge id=":antrim_46" function="internal">
        <lane id=":antrim_46_0" index="0" speed="4.16" length="6.65" shape="2288.59,3443.08 2283.61,3447.48"/>
    </edge>
    <edge id=":antrim_47" function="internal">
        <lane id=":antrim_47_0" index="0" speed="6.63" length="19.43" shape="2288.59,3443.08 2289.40,3449.02 2288.01,3452.47 2284.41,3453.43 2278.62,3451.89"/>
    </edge>
    <edge id=":antrim_48" function="internal">
        <lane id=":antrim_48_0" index="0" speed="10.00" length="60.22" shape="2288.61,3443.06 2283.28,3453.27 2270.49,3466.96 2255.99,3478.67 2245.51,3482.96"/>
    </edge>
    <edge id=":antrim_49" function="internal">
        <lane id=":antrim_49_0" index="0" speed="10.00" length="56.85" shape="2288.61,3443.06 2283.51,3452.94 2271.26,3465.80 2257.36,3476.40 2247.35,3479.52"/>
    </edge>
    <edge id=":antrim_50" function="internal">
        <lane id=":antrim_50_0" index="0" speed="10.00" length="48.73" shape="2288.61,3443.06 2284.45,3452.20 2274.29,3463.34 2262.57,3472.05 2253.75,3473.87"/>
    </edge>
    <edge id=":antrim_51" function="internal">
        <lane id=":antrim_51_0" index="0" speed="10.00" length="42.77" shape="2288.61,3443.06 2285.09,3451.72 2276.39,3461.70 2266.30,3469.00 2258.60,3469.58"/>
    </edge>
    <edge id=":antrim_52" function="internal">
        <lane id=":antrim_52_0" index="0" speed="9.56" length="35.72" shape="2288.61,3443.06 2285.79,3451.12 2278.76,3459.68 2270.61,3465.26 2264.44,3464.41"/>
    </edge>
    <edge id=":antrim_53" function="internal">
        <lane id=":antrim_53_0" index="0" speed="9.55" length="35.67" shape="2288.61,3443.06 2285.80,3451.12 2278.78,3459.66 2270.64,3465.24 2264.48,3464.38"/>
    </edge>
    <edge id=":antrim_54" function="internal">
        <lane id=":antrim_54_0" index="0" speed="9.82" length="38.09" shape="2288.61,3443.06 2285.47,3451.40 2277.75,3460.56 2268.94,3466.73 2262.54,3466.10"/>
    </edge>
    <edge id=":antrim_55" function="internal">
        <lane id=":antrim_55_0" index="0" speed="7.22" length="21.95" shape="2285.54,3445.77 2283.79,3451.22 2279.47,3456.60 2274.63,3459.71 2271.33,3458.33"/>
    </edge>
    <edge id=":antrim_56" function="internal">
        <lane id=":antrim_56_0" index="0" speed="7.17" length="21.66" shape="2285.54,3445.77 2283.81,3451.15 2279.53,3456.46 2274.76,3459.53 2271.52,3458.16"/>
    </edge>
    <edge id=":antrim_57" function="internal">
        <lane id=":antrim_57_0" index="0" speed="7.05" length="20.99" shape="2285.54,3445.77 2283.85,3450.99 2279.69,3456.14 2275.06,3459.12 2271.96,3457.77"/>
    </edge>
    <edge id=":antrim_58" function="internal">
        <lane id=":antrim_58_0" index="0" speed="6.47" length="17.86" shape="2285.54,3445.77 2284.05,3450.22 2280.43,3454.64 2276.48,3457.18 2273.99,3455.98"/>
    </edge>
    <edge id=":antrim_59" function="internal">
        <lane id=":antrim_59_0" index="0" speed="6.23" length="16.58" shape="2285.54,3445.77 2284.14,3449.91 2280.75,3454.02 2277.07,3456.37 2274.82,3455.25"/>
    </edge>
    <edge id=":antrim_60" function="internal">
        <lane id=":antrim_60_0" index="0" speed="5.85" length="14.61" shape="2285.54,3445.77 2284.28,3449.43 2281.25,3453.06 2278.00,3455.13 2276.09,3454.12"/>
    </edge>
    <edge id=":antrim_61" function="internal">
        <lane id=":antrim_61_0" index="0" speed="5.06" length="10.70" shape="2285.54,3445.77 2284.59,3448.46 2282.31,3451.13 2279.92,3452.65 2278.62,3451.89"/>
    </edge>
    <edge id=":antrim_62" function="internal">
        <lane id=":antrim_62_0" index="0" speed="10.00" length="69.65" shape="2285.54,3445.77 2284.19,3420.11 2283.42,3411.84 2283.22,3420.97 2283.61,3447.48"/>
    </edge>
    <edge id=":antrim_63" function="internal">
        <lane id=":antrim_63_0" index="0" speed="4.94" length="10.28" shape="2285.54,3445.77 2285.97,3448.92 2285.23,3450.74 2283.33,3451.25 2280.26,3450.44"/>
    </edge>
    <edge id=":antrim_64" function="internal">
        <lane id=":antrim_64_0" index="0" speed="10.00" length="61.87" shape="2289.90,3441.92 2284.26,3452.31 2271.04,3466.39 2256.15,3478.50 2245.51,3482.96"/>
    </edge>
    <edge id=":antrim_65" function="internal">
        <lane id=":antrim_65_0" index="0" speed="10.00" length="58.49" shape="2289.90,3441.92 2284.49,3451.99 2271.81,3465.23 2257.53,3476.22 2247.35,3479.52"/>
    </edge>
    <edge id=":antrim_66" function="internal">
        <lane id=":antrim_66_0" index="0" speed="10.00" length="50.35" shape="2289.90,3441.92 2285.43,3451.24 2274.84,3462.78 2262.74,3471.87 2253.75,3473.87"/>
    </edge>
    <edge id=":antrim_67" function="internal">
        <lane id=":antrim_67_0" index="0" speed="10.00" length="44.35" shape="2289.90,3441.92 2286.07,3450.76 2276.94,3461.14 2266.46,3468.82 2258.60,3469.58"/>
    </edge>
    <edge id=":antrim_68" function="internal">
        <lane id=":antrim_68_0" index="0" speed="9.82" length="37.25" shape="2289.90,3441.92 2286.77,3450.16 2279.31,3459.11 2270.78,3465.09 2264.44,3464.41"/>
    </edge>
    <edge id=":antrim_69" function="internal">
        <lane id=":antrim_69_0" index="0" speed="9.81" length="37.21" shape="2289.90,3441.92 2286.78,3450.16 2279.32,3459.10 2270.81,3465.06 2264.48,3464.38"/>
    </edge>
    <edge id=":antrim_70" function="internal">
        <lane id=":antrim_70_0" index="0" speed="9.70" length="36.66" shape="2289.90,3441.92 2286.83,3450.11 2279.50,3458.93 2271.14,3464.76 2264.94,3463.98"/>
    </edge>
    <edge id=":antrim_71" function="internal">
        <lane id=":antrim_71_0" index="0" speed="7.53" length="23.78" shape="2286.75,3444.70 2284.77,3450.61 2280.09,3456.46 2274.88,3459.83 2271.33,3458.33"/>
    </edge>
    <edge id=":antrim_72" function="internal">
        <lane id=":antrim_72_0" index="0" speed="7.48" length="23.49" shape="2286.75,3444.70 2284.79,3450.54 2280.16,3456.32 2275.01,3459.65 2271.52,3458.16"/>
    </edge>
    <edge id=":antrim_73" function="internal">
        <lane id=":antrim_73_0" index="0" speed="7.36" length="22.82" shape="2286.75,3444.70 2284.83,3450.38 2280.31,3456.00 2275.31,3459.24 2271.96,3457.77"/>
    </edge>
    <edge id=":antrim_74" function="internal">
        <lane id=":antrim_74_0" index="0" speed="6.79" length="19.70" shape="2286.75,3444.70 2285.04,3449.62 2281.05,3454.50 2276.71,3457.30 2273.99,3455.98"/>
    </edge>
    <edge id=":antrim_75" function="internal">
        <lane id=":antrim_75_0" index="0" speed="6.56" length="18.42" shape="2286.75,3444.70 2285.13,3449.31 2281.36,3453.88 2277.31,3456.50 2274.82,3455.25"/>
    </edge>
    <edge id=":antrim_76" function="internal">
        <lane id=":antrim_76_0" index="0" speed="6.19" length="16.46" shape="2286.75,3444.70 2285.28,3448.82 2281.87,3452.92 2278.23,3455.26 2276.09,3454.12"/>
    </edge>
    <edge id=":antrim_77" function="internal">
        <lane id=":antrim_77_0" index="0" speed="5.44" length="12.55" shape="2286.75,3444.70 2285.59,3447.85 2282.92,3450.99 2280.13,3452.78 2278.62,3451.89"/>
    </edge>
    <edge id=":antrim_78" function="internal">
        <lane id=":antrim_78_0" index="0" speed="4.91" length="10.01" shape="2286.75,3444.70 2285.81,3447.22 2283.64,3449.73 2281.42,3451.16 2280.26,3450.44"/>
    </edge>
    <edge id=":antrim_79" function="internal">
        <lane id=":antrim_79_0" index="0" speed="4.01" length="6.13" shape="2286.75,3444.70 2287.01,3446.58 2286.57,3447.67 2285.44,3447.97 2283.61,3447.48"/>
    </edge>
    <edge id=":antrim_80" function="internal">
        <lane id=":antrim_80_0" index="0" speed="3.15" length="2.82" shape="2278.81,3451.72 2278.56,3450.73 2278.45,3450.43 2278.46,3450.81 2278.62,3451.89"/>
    </edge>
    <edge id=":antrim_81" function="internal">
        <lane id=":antrim_81_0" index="0" speed="5.55" length="13.21" shape="2278.81,3451.72 2279.99,3456.23 2280.62,3457.52 2280.72,3455.59 2280.26,3450.44"/>
    </edge>
    <edge id=":antrim_82" function="internal">
        <lane id=":antrim_82_0" index="0" speed="4.74" length="8.74" shape="2278.81,3451.72 2279.60,3454.51 2280.13,3455.20 2280.42,3453.79 2280.46,3450.26"/>
    </edge>
    <edge id=":antrim_83" function="internal">
        <lane id=":antrim_83_0" index="0" speed="10.00" length="47.75" shape="2278.81,3451.72 2275.70,3460.48 2266.20,3471.20 2254.68,3479.99 2245.51,3482.96"/>
    </edge>
    <edge id=":antrim_84" function="internal">
        <lane id=":antrim_84_0" index="0" speed="10.00" length="44.49" shape="2278.81,3451.72 2275.93,3460.16 2266.97,3470.04 2256.06,3477.72 2247.35,3479.52"/>
    </edge>
    <edge id=":antrim_85" function="internal">
        <lane id=":antrim_85_0" index="0" speed="10.00" length="36.62" shape="2278.81,3451.72 2276.87,3459.41 2270.00,3467.59 2261.27,3473.37 2253.75,3473.87"/>
    </edge>
    <edge id=":antrim_86" function="internal">
        <lane id=":antrim_86_0" index="0" speed="9.03" length="30.97" shape="2278.81,3451.72 2277.50,3458.93 2272.10,3465.95 2265.00,3470.32 2258.60,3469.58"/>
    </edge>
    <edge id=":antrim_87" function="internal">
        <lane id=":antrim_87_0" index="0" speed="7.39" length="22.29" shape="2278.81,3451.72 2277.75,3457.03 2273.67,3462.28 2268.57,3465.42 2264.44,3464.41"/>
    </edge>
    <edge id=":antrim_88" function="internal">
        <lane id=":antrim_88_0" index="0" speed="7.38" length="22.23" shape="2278.81,3451.72 2277.75,3457.02 2273.68,3462.25 2268.60,3465.38 2264.48,3464.38"/>
    </edge>
    <edge id=":antrim_89" function="internal">
        <lane id=":antrim_89_0" index="0" speed="7.25" length="21.54" shape="2278.81,3451.72 2277.77,3456.86 2273.81,3461.94 2268.88,3464.98 2264.94,3463.98"/>
    </edge>
    <edge id=":antrim_90" function="internal">
        <lane id=":antrim_90_0" index="0" speed="5.30" length="11.68" shape="2278.81,3451.72 2278.15,3454.55 2275.84,3457.39 2273.15,3459.04 2271.33,3458.33"/>
    </edge>
    <edge id=":antrim_91" function="internal">
        <lane id=":antrim_91_0" index="0" speed="5.24" length="11.38" shape="2278.81,3451.72 2278.16,3454.48 2275.91,3457.25 2273.29,3458.86 2271.52,3458.16"/>
    </edge>
    <edge id=":antrim_92" function="internal">
        <lane id=":antrim_92_0" index="0" speed="5.09" length="10.70" shape="2278.81,3451.72 2278.19,3454.32 2276.07,3456.92 2273.60,3458.44 2271.96,3457.77"/>
    </edge>
    <edge id=":antrim_93" function="internal">
        <lane id=":antrim_93_0" index="0" speed="4.38" length="7.53" shape="2278.81,3451.72 2278.36,3453.55 2276.83,3455.40 2275.08,3456.47 2273.99,3455.98"/>
    </edge>
    <edge id=":antrim_94" function="internal">
        <lane id=":antrim_94_0" index="0" speed="3.84" length="5.32" shape="2278.81,3451.72 2274.82,3455.25"/>
    </edge>
    <edge id=":antrim_95" function="internal">
        <lane id=":antrim_95_0" index="0" speed="3.81" length="5.30" shape="2278.81,3451.72 2279.03,3453.34 2278.65,3454.28 2277.67,3454.54 2276.09,3454.12"/>
    </edge>
    <edge id=":antrim_96" function="internal">
        <lane id=":antrim_96_0" index="0" speed="9.63" length="44.36" shape="2277.48,3452.89 2272.87,3437.80 2270.57,3433.44 2270.59,3439.81 2272.92,3456.92"/>
    </edge>
    <edge id=":antrim_97" function="internal">
        <lane id=":antrim_97_0" index="0" speed="6.60" length="19.32" shape="2277.48,3452.89 2279.50,3459.27 2280.63,3460.98 2280.89,3458.04 2280.26,3450.44"/>
    </edge>
    <edge id=":antrim_98" function="internal">
        <lane id=":antrim_98_0" index="0" speed="5.72" length="13.53" shape="2277.48,3452.89 2278.89,3457.05 2279.85,3457.99 2280.37,3455.73 2280.46,3450.26"/>
    </edge>
    <edge id=":antrim_99" function="internal">
        <lane id=":antrim_99_0" index="0" speed="10.00" length="46.11" shape="2277.48,3452.89 2274.73,3461.43 2265.67,3471.76 2254.53,3480.16 2245.51,3482.96"/>
    </edge>
    <edge id=":antrim_100" function="internal">
        <lane id=":antrim_100_0" index="0" speed="10.00" length="42.87" shape="2277.48,3452.89 2274.96,3461.11 2266.44,3470.59 2255.90,3477.89 2247.35,3479.52"/>
    </edge>
    <edge id=":antrim_101" function="internal">
        <lane id=":antrim_101_0" index="0" speed="9.88" length="35.05" shape="2277.48,3452.89 2275.90,3460.36 2269.47,3468.14 2261.11,3473.54 2253.75,3473.87"/>
    </edge>
    <edge id=":antrim_102" function="internal">
        <lane id=":antrim_102_0" index="0" speed="8.69" length="29.08" shape="2277.48,3452.89 2276.42,3459.64 2271.37,3466.21 2264.66,3470.30 2258.60,3469.58"/>
    </edge>
    <edge id=":antrim_103" function="internal">
        <lane id=":antrim_103_0" index="0" speed="7.02" length="20.28" shape="2277.48,3452.89 2276.62,3457.69 2272.91,3462.45 2268.22,3465.32 2264.44,3464.41"/>
    </edge>
    <edge id=":antrim_104" function="internal">
        <lane id=":antrim_104_0" index="0" speed="7.01" length="20.22" shape="2277.48,3452.89 2276.62,3457.67 2272.92,3462.42 2268.25,3465.28 2264.48,3464.38"/>
    </edge>
    <edge id=":antrim_105" function="internal">
        <lane id=":antrim_105_0" index="0" speed="6.88" length="19.53" shape="2277.48,3452.89 2276.64,3457.52 2273.05,3462.11 2268.54,3464.87 2264.94,3463.98"/>
    </edge>
    <edge id=":antrim_106" function="internal">
        <lane id=":antrim_106_0" index="0" speed="4.86" length="9.62" shape="2277.48,3452.89 2276.98,3455.21 2275.08,3457.54 2272.85,3458.91 2271.33,3458.33"/>
    </edge>
    <edge id=":antrim_107" function="internal">
        <lane id=":antrim_107_0" index="0" speed="4.79" length="9.33" shape="2277.48,3452.89 2277.00,3455.14 2275.15,3457.40 2272.98,3458.73 2271.52,3458.16"/>
    </edge>
    <edge id=":antrim_108" function="internal">
        <lane id=":antrim_108_0" index="0" speed="4.64" length="8.64" shape="2277.48,3452.89 2277.03,3454.98 2275.31,3457.08 2273.30,3458.31 2271.96,3457.77"/>
    </edge>
    <edge id=":antrim_109" function="internal">
        <lane id=":antrim_109_0" index="0" speed="3.66" length="4.66" shape="2277.48,3452.89 2273.99,3455.98"/>
    </edge>
    <edge id=":antrim_110" function="internal">
        <lane id=":antrim_110_0" index="0" speed="8.98" length="39.31" shape="2277.48,3452.89 2273.44,3438.95 2271.86,3434.50 2272.75,3439.56 2276.09,3454.12"/>
    </edge>
    <edge id=":antrim_111" function="internal">
        <lane id=":antrim_111_0" index="0" speed="3.78" length="5.19" shape="2277.48,3452.89 2277.70,3454.48 2277.33,3455.40 2276.37,3455.66 2274.82,3455.25"/>
    </edge>
    <edge id=":antrim_112" function="internal">
        <lane id=":antrim_112_0" index="0" speed="4.68" length="8.91" shape="2274.51,3455.52 2273.27,3452.49 2272.77,3451.56 2273.01,3452.72 2273.99,3455.98"/>
    </edge>
    <edge id=":antrim_113" function="internal">
        <lane id=":antrim_113_0" index="0" speed="3.45" length="3.80" shape="2274.51,3455.52 2275.04,3456.79 2275.27,3457.17 2275.19,3456.66 2274.82,3455.25"/>
    </edge>
    <edge id=":antrim_114" function="internal">
        <lane id=":antrim_114_0" index="0" speed="4.91" length="9.81" shape="2274.51,3455.52 2273.15,3452.31 2272.50,3451.40 2272.58,3452.81 2273.37,3456.53"/>
    </edge>
    <edge id=":antrim_115" function="internal">
        <lane id=":antrim_115_0" index="0" speed="4.76" length="8.81" shape="2274.51,3455.52 2273.29,3452.78 2272.63,3452.10 2272.50,3453.48 2272.92,3456.92"/>
    </edge>
    <edge id=":antrim_116" function="internal">
        <lane id=":antrim_116_0" index="0" speed="7.74" length="26.33" shape="2274.51,3455.52 2278.11,3463.42 2280.27,3465.20 2280.99,3460.87 2280.26,3450.44"/>
    </edge>
    <edge id=":antrim_117" function="internal">
        <lane id=":antrim_117_0" index="0" speed="7.03" length="20.66" shape="2274.51,3455.52 2277.27,3461.23 2279.18,3462.26 2280.24,3458.61 2280.46,3450.26"/>
    </edge>
    <edge id=":antrim_118" function="internal">
        <lane id=":antrim_118_0" index="0" speed="10.00" length="42.47" shape="2274.51,3455.52 2272.58,3463.53 2264.51,3472.96 2254.18,3480.53 2245.51,3482.96"/>
    </edge>
    <edge id=":antrim_119" function="internal">
        <lane id=":antrim_119_0" index="0" speed="10.00" length="35.89" shape="2274.51,3455.52 2273.24,3462.83 2266.63,3470.60 2257.85,3476.24 2250.06,3477.12"/>
    </edge>
    <edge id=":antrim_120" function="internal">
        <lane id=":antrim_120_0" index="0" speed="9.19" length="31.59" shape="2274.51,3455.52 2273.75,3462.46 2268.30,3469.34 2260.77,3473.91 2253.75,3473.87"/>
    </edge>
    <edge id=":antrim_121" function="internal">
        <lane id=":antrim_121_0" index="0" speed="7.88" length="24.65" shape="2274.51,3455.52 2273.90,3461.11 2269.62,3466.66 2263.80,3470.15 2258.60,3469.58"/>
    </edge>
    <edge id=":antrim_122" function="internal">
        <lane id=":antrim_122_0" index="0" speed="6.16" length="15.75" shape="2274.51,3455.52 2274.02,3459.16 2271.14,3462.84 2267.42,3465.09 2264.44,3464.41"/>
    </edge>
    <edge id=":antrim_123" function="internal">
        <lane id=":antrim_123_0" index="0" speed="6.14" length="15.69" shape="2274.51,3455.52 2274.02,3459.15 2271.15,3462.82 2267.45,3465.05 2264.48,3464.38"/>
    </edge>
    <edge id=":antrim_124" function="internal">
        <lane id=":antrim_124_0" index="0" speed="6.00" length="14.98" shape="2274.51,3455.52 2274.04,3458.99 2271.28,3462.50 2267.74,3464.64 2264.94,3463.98"/>
    </edge>
    <edge id=":antrim_125" function="internal">
        <lane id=":antrim_125_0" index="0" speed="3.54" length="4.24" shape="2274.51,3455.52 2271.33,3458.33"/>
    </edge>
    <edge id=":antrim_126" function="internal">
        <lane id=":antrim_126_0" index="0" speed="3.47" length="3.99" shape="2274.51,3455.52 2271.52,3458.16"/>
    </edge>
    <edge id=":antrim_127" function="internal">
        <lane id=":antrim_127_0" index="0" speed="3.73" length="4.97" shape="2274.51,3455.52 2274.72,3457.04 2274.36,3457.92 2273.44,3458.17 2271.96,3457.77"/>
    </edge>
    <edge id=":antrim_128" function="internal">
        <lane id=":antrim_128_0" index="0" speed="8.75" length="36.61" shape="2276.59,3453.68 2271.30,3441.41 2269.10,3437.71 2270.00,3442.56 2273.99,3455.98"/>
    </edge>
    <edge id=":antrim_129" function="internal">
        <lane id=":antrim_129_0" index="0" speed="6.47" length="18.82" shape="2276.59,3453.68 2273.87,3447.46 2272.67,3445.65 2272.98,3448.24 2274.82,3455.25"/>
    </edge>
    <edge id=":antrim_130" function="internal">
        <lane id=":antrim_130_0" index="0" speed="7.43" length="25.10" shape="2276.59,3453.68 2272.97,3445.58 2271.22,3443.35 2271.36,3447.00 2273.37,3456.53"/>
    </edge>
    <edge id=":antrim_131" function="internal">
        <lane id=":antrim_131_0" index="0" speed="6.65" length="19.14" shape="2276.59,3453.68 2273.86,3447.82 2272.33,3446.40 2272.02,3449.44 2272.92,3456.92"/>
    </edge>
    <edge id=":antrim_132" function="internal">
        <lane id=":antrim_132_0" index="0" speed="6.19" length="15.99" shape="2276.59,3453.68 2278.86,3458.39 2280.22,3459.43 2280.69,3456.77 2280.26,3450.44"/>
    </edge>
    <edge id=":antrim_133" function="internal">
        <lane id=":antrim_133_0" index="0" speed="5.73" length="12.98" shape="2276.59,3453.68 2278.38,3457.20 2279.62,3457.81 2280.31,3455.50 2280.46,3450.26"/>