<?xml version="1.0" encoding="UTF-8"?>

<!-- generated on 2025-02-19 13:02:26 by Eclipse SUMO netconvert Version 1.18.0
<configuration xmlns:xsi="http://www.w3.org/2001/XMLSchema-instance" xsi:noNamespaceSchemaLocation="http://sumo.dlr.de/xsd/netconvertConfiguration.xsd">

    <input>
        <node-files value="nod.xml"/>
        <edge-files value="edge_xmls/09686.xml"/>
    </input>

    <output>
        <output-file value="networks/09686.net.xml"/>
    </output>

</configuration>
-->

<net version="1.16" junctionCornerDetail="5" limitTurnSpeed="5.50" xmlns:xsi="http://www.w3.org/2001/XMLSchema-instance" xsi:noNamespaceSchemaLocation="http://sumo.dlr.de/xsd/net_file.xsd">

    <location netOffset="-682.00,4368.00" convBoundary="0.00,0.00,2498.00,3881.00" origBoundary="682.00,-4368.00,3180.00,-487.00" projParameter="!"/>

    <edge id=":antrim_0" function="internal">
        <lane id=":antrim_0_0" index="0" speed="10.00" length="46.30" shape="2285.56,3446.20 2285.74,3462.28 2284.14,3475.69 2279.93,3483.70 2272.26,3483.59"/>
    </edge>
    <edge id=":antrim_1" function="internal">
        <lane id=":antrim_1_0" index="0" speed="8.95" length="32.73" shape="2285.56,3446.20 2283.26,3454.65 2277.06,3459.41 2269.43,3459.53 2262.87,3454.08"/>
    </edge>
    <edge id=":antrim_2" function="internal">
        <lane id=":antrim_2_0" index="0" speed="6.00" length="15.48" shape="2285.56,3446.20 2284.18,3449.94 2280.76,3451.74 2277.02,3451.27 2274.69,3448.20"/>
    </edge>
    <edge id=":antrim_3" function="internal">
        <lane id=":antrim_3_0" index="0" speed="5.16" length="11.23" shape="2285.56,3446.20 2284.19,3449.38 2282.47,3450.68 2280.41,3450.08 2278.00,3447.59"/>
    </edge>
    <edge id=":antrim_4" function="internal">
        <lane id=":antrim_4_0" index="0" speed="2.89" length="2.01" shape="2277.84,3447.62 2278.02,3448.35 2278.11,3448.59 2278.10,3448.34 2278.00,3447.59"/>
    </edge>
    <edge id=":antrim_5" function="internal">
        <lane id=":antrim_5_0" index="0" speed="10.00" length="43.96" shape="2277.84,3447.62 2280.82,3462.53 2281.83,3475.63 2279.45,3483.71 2272.26,3483.59"/>
    </edge>
    <edge id=":antrim_6" function="internal">
        <lane id=":antrim_6_0" index="0" speed="7.27" length="22.60" shape="2277.84,3447.62 2277.04,3453.43 2272.90,3457.05 2267.49,3457.57 2262.87,3454.08"/>
    </edge>
    <edge id=":antrim_7" function="internal">
        <lane id=":antrim_7_0" index="0" speed="3.65" length="4.68" shape="2277.84,3447.62 2277.27,3448.95 2276.55,3449.48 2275.69,3449.24 2274.69,3448.20"/>
    </edge>
    <edge id=":antrim_8" function="internal">
        <lane id=":antrim_8_0" index="0" speed="7.20" length="23.40" shape="2271.08,3449.48 2274.65,3457.36 2276.45,3459.77 2276.46,3456.71 2274.69,3448.20"/>
    </edge>
    <edge id=":antrim_9" function="internal">
        <lane id=":antrim_9_0" index="0" speed="8.21" length="30.15" shape="2271.08,3449.48 2275.77,3459.48 2278.49,3462.49 2279.23,3458.53 2278.00,3447.59"/>
    </edge>
    <edge id=":antrim_10" function="internal">
        <lane id=":antrim_10_0" index="0" speed="10.00" length="42.63" shape="2271.08,3449.48 2276.35,3463.23 2279.73,3475.87 2279.07,3483.85 2272.26,3483.59"/>
    </edge>
    <edge id=":antrim_11" function="internal">
        <lane id=":antrim_11_0" index="0" speed="5.66" length="13.73" shape="2271.08,3449.48 2270.75,3453.71 2269.27,3455.88 2266.65,3456.00 2262.87,3454.08"/>
    </edge>
    <edge id=":antrim_12" function="internal">
        <lane id=":antrim_12_0" index="0" speed="7.54" length="25.04" shape="2266.42,3467.93 2270.62,3471.32 2271.43,3470.14 2268.84,3464.39 2262.87,3454.08"/>
    </edge>
    <edge id=":antrim_13" function="internal">
        <lane id=":antrim_13_0" index="0" speed="9.43" length="35.47" shape="2266.42,3467.93 2273.23,3472.75 2276.87,3471.07 2277.36,3462.88 2274.69,3448.20"/>
    </edge>
    <edge id=":antrim_14" function="internal">
        <lane id=":antrim_14_0" index="0" speed="9.80" length="37.17" shape="2266.42,3467.93 2273.62,3472.89 2277.95,3471.16 2279.41,3462.73 2278.00,3447.59"/>
    </edge>
    <edge id=":antrim_15" function="internal">
        <lane id=":antrim_15_0" index="0" speed="7.19" length="22.33" shape="2266.42,3467.93 2271.32,3473.70 2274.94,3479.79 2275.76,3483.87 2272.26,3483.59"/>
    </edge>
    <edge id=":antrim_16" function="internal">
        <lane id=":antrim_16_0" index="0" speed="8.97" length="32.21" shape="2273.69,3480.88 2276.01,3480.74 2274.98,3476.23 2270.60,3467.34 2262.87,3454.08"/>
    </edge>
    <edge id=":antrim_17" function="internal">
        <lane id=":antrim_17_0" index="0" speed="10.00" length="36.90" shape="2273.69,3480.88 2277.48,3480.75 2278.92,3475.26 2277.98,3464.41 2274.69,3448.20"/>
    </edge>
    <edge id=":antrim_18" function="internal">
        <lane id=":antrim_18_0" index="0" speed="10.00" length="37.79" shape="2273.69,3480.88 2277.80,3480.77 2279.89,3475.19 2279.96,3464.13 2278.00,3447.59"/>
    </edge>
    <edge id=":antrim_19" function="internal">
        <lane id=":antrim_19_0" index="0" speed="10.00" length="343.77" shape="2273.69,3480.88 2158.94,3422.13 2120.45,3403.00 2158.23,3423.49 2272.26,3483.59"/>
    </edge>
    <edge id=":antrim_20" function="internal">
        <lane id=":antrim_20_0" index="0" speed="8.93" length="32.08" shape="2273.75,3480.76 2276.03,3480.64 2274.97,3476.16 2270.59,3467.30 2262.87,3454.08"/>
    </edge>
    <edge id=":antrim_21" function="internal">
        <lane id=":antrim_21_0" index="0" speed="10.00" length="36.79" shape="2273.75,3480.76 2277.52,3480.67 2278.93,3475.21 2277.98,3464.39 2274.69,3448.20"/>
    </edge>
    <edge id=":antrim_22" function="internal">
        <lane id=":antrim_22_0" index="0" speed="10.00" length="37.68" shape="2273.75,3480.76 2277.84,3480.69 2279.90,3475.14 2279.96,3464.11 2278.00,3447.59"/>
    </edge>
    <edge id=":antrim_23" function="internal">
        <lane id=":antrim_23_0" index="0" speed="3.65" length="4.67" shape="2273.75,3480.76 2274.44,3482.03 2274.42,3482.92 2273.70,3483.44 2272.26,3483.59"/>
    </edge>
    <edge id=":athlone_0" function="internal">
        <lane id=":athlone_0_0" index="0" speed="5.41" length="9.83" shape="1264.51,1951.87 1262.98,1954.59 1263.04,1956.24 1264.70,1956.82 1267.96,1956.33"/>
    </edge>
    <edge id=":athlone_1" function="internal">
        <lane id=":athlone_1_0" index="0" speed="10.00" length="14.41" shape="1264.51,1951.87 1261.57,1956.24 1259.55,1959.82 1258.46,1962.62 1258.30,1964.64"/>
    </edge>
    <edge id=":athlone_2" function="internal">
        <lane id=":athlone_2_0" index="0" speed="4.82" length="8.95" shape="1264.51,1951.87 1262.53,1953.18 1260.30,1952.98 1258.69,1951.60 1258.57,1949.39"/>
    </edge>
    <edge id=":athlone_3" function="internal">
        <lane id=":athlone_3_0" index="0" speed="4.69" length="8.51" shape="1264.51,1951.87 1262.32,1953.33 1260.69,1953.44 1259.63,1952.20 1259.13,1949.62"/>
    </edge>
    <edge id=":athlone_4" function="internal">
        <lane id=":athlone_4_0" index="0" speed="10.00" length="15.69" shape="1251.94,1963.54 1254.05,1960.34 1255.78,1956.75 1257.25,1953.03 1258.57,1949.39"/>
    </edge>
    <edge id=":athlone_5" function="internal">
        <lane id=":athlone_5_0" index="0" speed="10.00" length="15.71" shape="1251.94,1963.54 1254.10,1960.36 1255.96,1956.84 1257.62,1953.18 1259.13,1949.62"/>
    </edge>
    <edge id=":athlone_6" function="internal">
        <lane id=":athlone_6_0" index="0" speed="10.00" length="17.80" shape="1251.94,1963.54 1255.07,1960.93 1259.30,1958.93 1263.85,1957.43 1267.96,1956.33"/>
    </edge>
    <edge id=":athlone_7" function="internal">
        <lane id=":athlone_7_0" index="0" speed="5.59" length="9.89" shape="1251.94,1963.54 1254.21,1961.25 1256.03,1960.67 1257.39,1961.80 1258.30,1964.64"/>
    </edge>
    <edge id=":belfast_0" function="internal">
        <lane id=":belfast_0_0" index="0" speed="10.00" length="34.16" shape="2497.46,3337.54 2495.94,3346.16 2490.30,3350.36 2482.05,3350.41 2472.69,3346.58"/>
    </edge>
    <edge id=":belfast_1" function="internal">
        <lane id=":belfast_1_0" index="0" speed="8.66" length="26.68" shape="2497.46,3337.54 2495.10,3342.44 2488.72,3345.28 2481.06,3345.77 2474.86,3343.56"/>
    </edge>
    <edge id=":belfast_2" function="internal">
        <lane id=":belfast_2_0" index="0" speed="8.74" length="28.08" shape="2497.46,3337.54 2494.97,3342.84 2488.28,3346.17 2480.31,3346.94 2473.99,3344.57"/>
    </edge>
    <edge id=":belfast_3" function="internal">
        <lane id=":belfast_3_0" index="0" speed="5.70" length="13.83" shape="2497.46,3337.54 2496.29,3338.59 2493.28,3336.68 2489.99,3333.28 2488.00,3329.86"/>
    </edge>
    <edge id=":belfast_4" function="internal">
        <lane id=":belfast_4_0" index="0" speed="9.58" length="33.69" shape="2491.08,3329.01 2491.50,3338.53 2487.83,3345.64 2481.20,3348.83 2472.69,3346.58"/>
    </edge>
    <edge id=":belfast_5" function="internal">
        <lane id=":belfast_5_0" index="0" speed="8.71" length="29.29" shape="2491.08,3329.01 2491.24,3337.27 2487.73,3343.50 2481.84,3346.12 2474.86,3343.56"/>
    </edge>
    <edge id=":belfast_6" function="internal">
        <lane id=":belfast_6_0" index="0" speed="8.27" length="26.98" shape="2491.08,3329.01 2491.13,3336.62 2487.75,3342.38 2482.28,3344.74 2476.07,3342.14"/>
    </edge>
    <edge id=":belfast_7" function="internal">
        <lane id=":belfast_7_0" index="0" speed="3.65" length="4.67" shape="2491.08,3329.01 2490.63,3330.38 2489.96,3330.98 2489.09,3330.81 2488.00,3329.86"/>
    </edge>
    <edge id=":belfast_8" function="internal">
        <lane id=":belfast_8_0" index="0" speed="3.56" length="4.14" shape="2487.53,3329.98 2488.15,3331.41 2488.43,3331.87 2488.38,3331.35 2488.00,3329.86"/>
    </edge>
    <edge id=":belfast_9" function="internal">
        <lane id=":belfast_9_0" index="0" speed="8.82" length="29.88" shape="2487.53,3329.98 2488.67,3338.31 2485.83,3344.98 2480.13,3348.29 2472.69,3346.58"/>
    </edge>
    <edge id=":belfast_10" function="internal">
        <lane id=":belfast_10_0" index="0" speed="7.94" length="25.26" shape="2487.53,3329.98 2488.33,3337.04 2485.68,3342.77 2480.79,3345.50 2474.86,3343.56"/>
    </edge>
    <edge id=":belfast_11" function="internal">
        <lane id=":belfast_11_0" index="0" speed="7.48" length="22.85" shape="2487.53,3329.98 2488.18,3336.39 2485.68,3341.63 2481.25,3344.09 2476.07,3342.14"/>
    </edge>
    <edge id=":belfast_12" function="internal">
        <lane id=":belfast_12_0" index="0" speed="7.42" length="23.20" shape="2481.94,3335.27 2486.88,3341.19 2489.54,3342.26 2489.91,3338.49 2488.00,3329.86"/>
    </edge>
    <edge id=":belfast_13" function="internal">
        <lane id=":belfast_13_0" index="0" speed="6.99" length="20.10" shape="2481.94,3335.27 2483.49,3340.40 2481.71,3344.96 2477.74,3347.50 2472.69,3346.58"/>
    </edge>
    <edge id=":belfast_14" function="internal">
        <lane id=":belfast_14_0" index="0" speed="6.03" length="15.17" shape="2481.94,3335.27 2483.01,3339.17 2481.51,3342.67 2478.46,3344.55 2474.86,3343.56"/>
    </edge>
    <edge id=":belfast_15" function="internal">
        <lane id=":belfast_15_0" index="0" speed="5.61" length="13.19" shape="2481.94,3335.27 2483.05,3339.19 2482.44,3341.64 2480.12,3342.62 2476.07,3342.14"/>
    </edge>
    <edge id=":belfast_16" function="internal">
        <lane id=":belfast_16_0" index="0" speed="3.49" length="3.90" shape="2474.53,3343.95 2475.80,3344.68 2476.28,3344.86 2475.96,3344.49 2474.86,3343.56"/>
    </edge>
    <edge id=":belfast_17" function="internal">
        <lane id=":belfast_17_0" index="0" speed="6.87" length="20.87" shape="2474.53,3343.95 2467.76,3340.15 2465.06,3339.39 2466.45,3341.68 2471.91,3347.01"/>
    </edge>
    <edge id=":belfast_18" function="internal">
        <lane id=":belfast_18_0" index="0" speed="9.34" length="31.96" shape="2474.53,3343.95 2483.19,3347.79 2488.32,3346.73 2489.93,3340.75 2488.00,3329.86"/>
    </edge>
    <edge id=":belfast_19" function="internal">
        <lane id=":belfast_19_0" index="0" speed="3.65" length="4.68" shape="2474.53,3343.95 2475.05,3345.29 2474.92,3346.18 2474.14,3346.61 2472.69,3346.58"/>
    </edge>
    <edge id=":belfast_20" function="internal">
        <lane id=":belfast_20_0" index="0" speed="8.51" length="24.34" shape="2487.61,3362.30 2489.22,3360.34 2487.27,3357.06 2481.76,3352.48 2472.69,3346.58"/>
    </edge>
    <edge id=":belfast_21" function="internal">
        <lane id=":belfast_21_0" index="0" speed="8.97" length="25.38" shape="2487.61,3362.30 2489.52,3360.09 2488.03,3356.22 2483.14,3350.72 2474.86,3343.56"/>
    </edge>
    <edge id=":belfast_22" function="internal">
        <lane id=":belfast_22_0" index="0" speed="8.52" length="21.95" shape="2487.61,3362.30 2485.66,3359.86 2480.39,3354.77 2474.81,3349.63 2471.91,3347.01"/>
    </edge>
    <edge id=":belfast_23" function="internal">
        <lane id=":belfast_23_0" index="0" speed="10.00" length="34.23" shape="2487.61,3362.30 2490.81,3359.05 2491.94,3352.56 2491.00,3342.83 2488.00,3329.86"/>
    </edge>
    <edge id=":belfast_24" function="internal">
        <lane id=":belfast_24_0" index="0" speed="9.31" length="29.42" shape="2497.05,3337.57 2494.70,3343.24 2488.02,3346.98 2479.76,3348.27 2472.69,3346.58"/>
    </edge>
    <edge id=":belfast_25" function="internal">
        <lane id=":belfast_25_0" index="0" speed="8.56" length="26.25" shape="2497.05,3337.57 2494.79,3342.39 2488.53,3345.22 2480.97,3345.72 2474.86,3343.56"/>
    </edge>
    <edge id=":belfast_26" function="internal">
        <lane id=":belfast_26_0" index="0" speed="8.64" length="27.65" shape="2497.05,3337.57 2494.67,3342.80 2488.09,3346.10 2480.23,3346.89 2473.99,3344.57"/>
    </edge>
    <edge id=":belfast_27" function="internal">
        <lane id=":belfast_27_0" index="0" speed="6.07" length="16.07" shape="2497.05,3337.57 2496.20,3340.03 2493.47,3338.57 2490.26,3334.68 2488.00,3329.86"/>
    </edge>
    <edge id=":bray_0" function="internal">
        <lane id=":bray_0_0" index="0" speed="5.92" length="15.02" shape="2414.38,1661.76 2419.83,1661.18 2421.62,1660.52 2419.74,1659.79 2414.19,1658.99"/>
    </edge>
    <edge id=":bray_1" function="internal">
        <lane id=":bray_1_0" index="0" speed="7.20" length="22.23" shape="2414.38,1661.76 2422.27,1660.77 2424.92,1659.37 2422.34,1657.57 2414.52,1655.36"/>
    </edge>
    <edge id=":bray_2" function="internal">
        <lane id=":bray_2_0" index="0" speed="9.82" length="28.63" shape="2414.38,1661.76 2426.98,1660.57 2435.70,1659.17 2440.54,1657.57 2441.50,1655.77"/>
    </edge>
    <edge id=":bray_3" function="internal">
        <lane id=":bray_3_0" index="0" speed="3.22" length="3.10" shape="2414.38,1661.76 2415.21,1662.24 2415.51,1662.75 2415.28,1663.29 2414.52,1663.88"/>
    </edge>
    <edge id=":bray_4" function="internal">
        <lane id=":bray_4_0" index="0" speed="6.21" length="16.62" shape="2414.74,1667.23 2420.69,1665.52 2422.63,1664.39 2420.58,1663.84 2414.52,1663.88"/>
    </edge>
    <edge id=":bray_5" function="internal">
        <lane id=":bray_5_0" index="0" speed="7.61" length="24.51" shape="2414.74,1667.23 2423.09,1664.60 2425.78,1662.35 2422.81,1660.48 2414.19,1658.99"/>
    </edge>
    <edge id=":bray_6" function="internal">
        <lane id=":bray_6_0" index="0" speed="8.26" length="27.90" shape="2414.74,1667.23 2423.90,1664.18 2426.91,1661.18 2423.79,1658.24 2414.52,1655.36"/>
    </edge>
    <edge id=":bray_7" function="internal">
        <lane id=":bray_7_0" index="0" speed="10.00" length="30.02" shape="2414.74,1667.23 2427.26,1663.78 2435.89,1660.72 2440.63,1658.05 2441.50,1655.77"/>
    </edge>
    <edge id=":bray_8" function="internal">
        <lane id=":bray_8_0" index="0" speed="7.76" length="23.43" shape="2432.81,1668.24 2434.59,1665.93 2432.13,1664.44 2425.44,1663.75 2414.52,1663.88"/>
    </edge>
    <edge id=":bray_9" function="internal">
        <lane id=":bray_9_0" index="0" speed="8.39" length="25.86" shape="2432.81,1668.24 2434.95,1665.36 2432.56,1662.86 2425.64,1660.74 2414.19,1658.99"/>
    </edge>
    <edge id=":bray_10" function="internal">
        <lane id=":bray_10_0" index="0" speed="8.85" length="27.48" shape="2432.81,1668.24 2435.16,1665.00 2432.90,1661.77 2426.02,1658.56 2414.52,1655.36"/>
    </edge>
    <edge id=":bray_11" function="internal">
        <lane id=":bray_11_0" index="0" speed="8.96" length="16.25" shape="2432.81,1668.24 2437.53,1664.55 2440.55,1661.25 2441.87,1658.32 2441.50,1655.77"/>
    </edge>
    <edge id=":bray_12" function="internal">
        <lane id=":bray_12_0" index="0" speed="8.90" length="27.39" shape="2435.80,1671.40 2437.02,1667.68 2433.88,1665.19 2426.38,1663.92 2414.52,1663.88"/>
    </edge>
    <edge id=":bray_13" function="internal">
        <lane id=":bray_13_0" index="0" speed="9.57" length="29.53" shape="2435.80,1671.40 2437.14,1667.20 2433.98,1663.73 2426.33,1660.99 2414.19,1658.99"/>
    </edge>
    <edge id=":bray_14" function="internal">
        <lane id=":bray_14_0" index="0" speed="10.00" length="31.00" shape="2435.80,1671.40 2437.24,1666.87 2434.17,1662.68 2426.60,1658.85 2414.52,1655.36"/>
    </edge>
    <edge id=":bray_15" function="internal">
        <lane id=":bray_15_0" index="0" speed="10.00" length="17.37" shape="2435.80,1671.40 2439.27,1666.46 2441.38,1662.20 2442.12,1658.64 2441.50,1655.77"/>
    </edge>
    <edge id=":carlow_0" function="internal">
        <lane id=":carlow_0_0" index="0" speed="8.64" length="33.01" shape="1894.58,1186.60 1890.91,1175.55 1888.16,1172.25 1886.34,1176.70 1885.44,1188.92"/>
    </edge>
    <edge id=":carlow_1" function="internal">
        <lane id=":carlow_1_0" index="0" speed="8.76" length="32.59" shape="1894.58,1186.60 1890.41,1173.93 1886.93,1168.56 1884.15,1170.49 1882.07,1179.71"/>
    </edge>
    <edge id=":carlow_2" function="internal">
        <lane id=":carlow_2_0" index="0" speed="9.67" length="34.63" shape="1894.58,1186.60 1889.94,1171.27 1886.03,1161.48 1882.85,1157.23 1880.41,1158.53"/>
    </edge>
    <edge id=":carlow_3" function="internal">
        <lane id=":carlow_3_0" index="0" speed="10.00" length="38.05" shape="1894.58,1186.60 1889.59,1170.73 1884.99,1160.52 1880.77,1155.97 1876.93,1157.08"/>
    </edge>
    <edge id=":carlow_4" function="internal">
        <lane id=":carlow_4_0" index="0" speed="9.33" length="38.65" shape="1894.58,1186.60 1891.46,1173.51 1889.49,1160.99 1889.99,1153.97 1894.30,1157.35"/>
    </edge>
    <edge id=":carlow_5" function="internal">
        <lane id=":carlow_5_0" index="0" speed="3.65" length="4.67" shape="1894.58,1186.60 1895.06,1185.24 1895.74,1184.66 1896.61,1184.85 1897.68,1185.82"/>
    </edge>
    <edge id=":carlow_6" function="internal">
        <lane id=":carlow_6_0" index="0" speed="10.00" length="18.83" shape="1883.44,1141.98 1886.19,1145.34 1889.13,1149.47 1891.93,1153.69 1894.30,1157.35"/>
    </edge>
    <edge id=":carlow_7" function="internal">
        <lane id=":carlow_7_0" index="0" speed="10.00" length="46.16" shape="1883.44,1141.98 1886.92,1149.70 1891.34,1163.46 1895.38,1177.45 1897.68,1185.82"/>
    </edge>
    <edge id=":carlow_8" function="internal">
        <lane id=":carlow_8_0" index="0" speed="10.00" length="47.14" shape="1883.44,1141.98 1885.21,1150.16 1885.77,1164.95 1885.67,1179.99 1885.44,1188.92"/>
    </edge>
    <edge id=":carlow_9" function="internal">
        <lane id=":carlow_9_0" index="0" speed="10.00" length="38.04" shape="1883.44,1141.98 1884.57,1145.65 1884.72,1153.16 1883.89,1164.51 1882.07,1179.71"/>
    </edge>
    <edge id=":carlow_10" function="internal">
        <lane id=":carlow_10_0" index="0" speed="10.00" length="17.56" shape="1883.44,1141.98 1884.56,1144.42 1884.43,1147.99 1883.05,1152.70 1880.41,1158.53"/>
    </edge>
    <edge id=":carlow_11" function="internal">
        <lane id=":carlow_11_0" index="0" speed="8.94" length="16.96" shape="1883.44,1141.98 1883.74,1144.62 1882.28,1148.78 1879.78,1153.31 1876.93,1157.08"/>
    </edge>
    <edge id=":carlow_12" function="internal">
        <lane id=":carlow_12_0" index="0" speed="4.45" length="7.18" shape="1878.02,1157.53 1877.12,1159.85 1877.17,1160.76 1878.15,1160.27 1880.07,1158.39"/>
    </edge>
    <edge id=":carlow_13" function="internal">
        <lane id=":carlow_13_0" index="0" speed="7.63" length="18.35" shape="1878.02,1157.53 1881.09,1154.78 1885.89,1153.88 1890.82,1154.76 1894.30,1157.35"/>
    </edge>
    <edge id=":carlow_14" function="internal">
        <lane id=":carlow_14_0" index="0" speed="9.75" length="36.01" shape="1878.02,1157.53 1881.96,1158.10 1888.03,1166.11 1894.01,1176.90 1897.68,1185.82"/>
    </edge>
    <edge id=":carlow_15" function="internal">
        <lane id=":carlow_15_0" index="0" speed="8.97" length="34.31" shape="1878.02,1157.53 1880.75,1157.80 1883.18,1166.88 1884.89,1179.14 1885.44,1188.92"/>
    </edge>
    <edge id=":carlow_16" function="internal">
        <lane id=":carlow_16_0" index="0" speed="7.58" length="24.99" shape="1878.02,1157.53 1880.10,1157.06 1881.58,1163.26 1882.30,1172.14 1882.07,1179.71"/>
    </edge>
    <edge id=":carlow_17" function="internal">
        <lane id=":carlow_17_0" index="0" speed="3.43" length="3.79" shape="1878.02,1157.53 1878.99,1156.89 1879.71,1156.84 1880.19,1157.38 1880.41,1158.53"/>
    </edge>
    <edge id=":carrick_0" function="internal">
        <lane id=":carrick_0_0" index="0" speed="10.00" length="29.42" shape="1128.33,2591.82 1127.13,2585.96 1127.60,2579.32 1129.74,2571.89 1133.56,2563.69"/>
    </edge>
    <edge id=":carrick_1" function="internal">
        <lane id=":carrick_1_0" index="0" speed="10.00" length="28.02" shape="1128.33,2591.82 1127.50,2586.10 1129.27,2580.37 1133.63,2574.63 1140.60,2568.87"/>
    </edge>
    <edge id=":carrick_2" function="internal">
        <lane id=":carrick_2_0" index="0" speed="10.00" length="27.89" shape="1128.33,2591.82 1127.52,2586.12 1129.38,2580.49 1133.91,2574.94 1141.10,2569.45"/>
    </edge>
    <edge id=":carrick_3" function="internal">
        <lane id=":carrick_3_0" index="0" speed="9.33" length="26.50" shape="1132.50,2586.09 1128.02,2583.96 1127.42,2578.85 1129.62,2571.75 1133.56,2563.69"/>
    </edge>
    <edge id=":carrick_4" function="internal">
        <lane id=":carrick_4_0" index="0" speed="7.02" length="18.16" shape="1132.64,2582.89 1131.00,2581.03 1132.95,2576.95 1136.74,2572.33 1140.60,2568.87"/>
    </edge>
    <edge id=":carrick_5" function="internal">
        <lane id=":carrick_5_0" index="0" speed="6.91" length="17.89" shape="1132.64,2582.89 1131.10,2581.10 1133.21,2577.16 1137.15,2572.72 1141.10,2569.45"/>
    </edge>
    <edge id=":carrick_6" function="internal">
        <lane id=":carrick_6_0" index="0" speed="4.21" length="6.36" shape="1139.60,2567.71 1138.14,2569.54 1137.83,2570.34 1138.64,2570.12 1140.60,2568.87"/>
    </edge>
    <edge id=":carrick_7" function="internal">
        <lane id=":carrick_7_0" index="0" speed="4.70" length="8.31" shape="1139.60,2567.71 1137.73,2570.09 1137.37,2571.17 1138.49,2570.96 1141.10,2569.45"/>
    </edge>
    <edge id=":carrick_8" function="internal">
        <lane id=":carrick_8_0" index="0" speed="4.70" length="8.55" shape="1139.60,2567.71 1137.82,2568.16 1135.55,2567.19 1133.80,2565.47 1133.56,2563.69"/>
    </edge>
    <edge id=":carrick_9" function="internal">
        <lane id=":carrick_9_0" index="0" speed="5.88" length="13.26" shape="1136.43,2565.25 1134.53,2569.43 1134.59,2571.43 1136.61,2571.24 1140.60,2568.87"/>
    </edge>
    <edge id=":carrick_10" function="internal">
        <lane id=":carrick_10_0" index="0" speed="6.08" length="14.10" shape="1136.43,2565.25 1134.46,2569.65 1134.58,2571.82 1136.79,2571.76 1141.10,2569.45"/>
    </edge>
    <edge id=":carrick_11" function="internal">
        <lane id=":carrick_11_0" index="0" speed="3.68" length="4.77" shape="1136.43,2565.25 1135.13,2565.93 1134.22,2565.90 1133.70,2565.16 1133.56,2563.69"/>
    </edge>
    <edge id=":carrick_12" function="internal">
        <lane id=":carrick_12_0" index="0" speed="6.40" length="14.39" shape="1124.81,2568.43 1126.04,2571.16 1127.90,2571.28 1130.41,2568.79 1133.56,2563.69"/>
    </edge>
    <edge id=":carrick_13" function="internal">
        <lane id=":carrick_13_0" index="0" speed="8.22" length="19.46" shape="1124.81,2568.43 1126.63,2572.17 1129.87,2573.49 1134.53,2572.39 1140.60,2568.87"/>
    </edge>
    <edge id=":carrick_14" function="internal">
        <lane id=":carrick_14_0" index="0" speed="8.39" length="19.87" shape="1124.81,2568.43 1126.67,2572.24 1130.01,2573.68 1134.82,2572.75 1141.10,2569.45"/>
    </edge>
    <edge id=":carrick_15" function="internal">
        <lane id=":carrick_15_0" index="0" speed="8.35" length="20.43" shape="1118.25,2568.46 1122.02,2571.77 1125.83,2572.08 1129.68,2569.39 1133.56,2563.69"/>
    </edge>
    <edge id=":carrick_16" function="internal">
        <lane id=":carrick_16_0" index="0" speed="10.00" length="25.07" shape="1118.25,2568.46 1122.68,2572.37 1127.88,2573.74 1133.85,2572.58 1140.60,2568.87"/>
    </edge>
    <edge id=":carrick_17" function="internal">
        <lane id=":carrick_17_0" index="0" speed="10.00" length="25.45" shape="1118.25,2568.46 1122.72,2572.43 1128.02,2573.91 1134.15,2572.92 1141.10,2569.45"/>
    </edge>
    <edge id=":castlebar_0" function="internal">
        <lane id=":castlebar_0_0" index="0" speed="10.00" length="53.51" shape="337.99,2467.76 320.77,2457.70 308.91,2448.41 302.41,2439.91 301.27,2432.19"/>
    </edge>
    <edge id=":castlebar_1" function="internal">
        <lane id=":castlebar_1_0" index="0" speed="10.00" length="48.00" shape="337.99,2467.76 323.34,2459.40 312.18,2451.01 306.95,2443.08 310.08,2436.08"/>
    </edge>
    <edge id=":castlebar_2" function="internal">
        <lane id=":castlebar_2_0" index="0" speed="5.24" length="11.60" shape="337.99,2467.76 336.23,2465.46 336.62,2462.61 338.58,2460.47 341.50,2460.30"/>
    </edge>
    <edge id=":castlebar_3" function="internal">
        <lane id=":castlebar_3_0" index="0" speed="3.65" length="4.67" shape="337.99,2467.76 337.30,2466.49 337.32,2465.60 338.04,2465.08 339.48,2464.92"/>
    </edge>
    <edge id=":castlebar_4" function="internal">
        <lane id=":castlebar_4_0" index="0" speed="7.31" length="24.24" shape="341.06,2461.43 332.44,2458.79 329.30,2458.50 331.65,2460.54 339.48,2464.92"/>
    </edge>
    <edge id=":castlebar_5" function="internal">
        <lane id=":castlebar_5_0" index="0" speed="10.00" length="52.39" shape="341.06,2461.43 322.48,2454.21 309.65,2446.94 302.59,2439.59 301.27,2432.19"/>
    </edge>
    <edge id=":castlebar_6" function="internal">
        <lane id=":castlebar_6_0" index="0" speed="10.00" length="46.51" shape="341.06,2461.43 325.75,2455.72 313.47,2449.39 307.24,2442.74 310.08,2436.08"/>
    </edge>
    <edge id=":castlebar_7" function="internal">
        <lane id=":castlebar_7_0" index="0" speed="2.80" length="1.77" shape="341.06,2461.43 340.75,2460.98 340.72,2460.64 340.97,2460.42 341.50,2460.30"/>
    </edge>
    <edge id=":castlebar_8" function="internal">
        <lane id=":castlebar_8_0" index="0" speed="10.00" length="37.86" shape="312.05,2438.60 311.75,2441.50 316.75,2445.59 327.06,2450.87 342.67,2457.32"/>
    </edge>
    <edge id=":castlebar_9" function="internal">
        <lane id=":castlebar_9_0" index="0" speed="10.00" length="41.66" shape="312.05,2438.60 310.35,2442.92 314.35,2448.75 324.06,2456.08 339.48,2464.92"/>
    </edge>
    <edge id=":castlebar_10" function="internal">
        <lane id=":castlebar_10_0" index="0" speed="7.73" length="21.95" shape="312.05,2438.60 305.93,2442.46 302.10,2442.68 300.54,2439.25 301.27,2432.19"/>
    </edge>
    <edge id=":castlebar_11" function="internal">
        <lane id=":castlebar_11_0" index="0" speed="3.65" length="4.67" shape="312.05,2438.60 310.62,2438.71 309.81,2438.32 309.63,2437.45 310.08,2436.08"/>
    </edge>
    <edge id=":castlebar_12" function="internal">
        <lane id=":castlebar_12_0" index="0" speed="5.45" length="10.42" shape="305.52,2433.11 304.85,2436.49 305.39,2438.12 307.13,2437.98 310.08,2436.08"/>
    </edge>
    <edge id=":castlebar_13" function="internal">
        <lane id=":castlebar_13_0" index="0" speed="10.00" length="47.61" shape="305.52,2433.11 306.43,2439.28 312.73,2445.87 324.42,2452.88 341.50,2460.30"/>
    </edge>
    <edge id=":castlebar_14" function="internal">
        <lane id=":castlebar_14_0" index="0" speed="10.00" length="48.74" shape="305.52,2433.11 306.29,2439.63 312.20,2447.11 323.27,2455.54 339.48,2464.92"/>
    </edge>
    <edge id=":castlebar_15" function="internal">
        <lane id=":castlebar_15_0" index="0" speed="4.11" length="6.35" shape="305.52,2433.11 304.11,2434.47 302.94,2434.77 301.99,2434.01 301.27,2432.19"/>
    </edge>
    <edge id=":cavan_0" function="internal">
        <lane id=":cavan_0_0" index="0" speed="10.00" length="22.42" shape="1688.40,2636.30 1686.22,2632.04 1684.66,2625.95 1683.72,2619.64 1683.41,2614.68"/>
    </edge>
    <edge id=":cavan_1" function="internal">
        <lane id=":cavan_1_0" index="0" speed="10.00" length="22.42" shape="1688.40,2636.30 1686.22,2632.04 1684.67,2625.95 1683.73,2619.64 1683.41,2614.68"/>
    </edge>
    <edge id=":cavan_2" function="internal">
        <lane id=":cavan_2_0" index="0" speed="10.00" length="21.87" shape="1688.40,2636.30 1686.66,2632.73 1686.93,2628.25 1689.19,2622.88 1693.46,2616.60"/>
    </edge>
    <edge id=":cavan_3" function="internal">
        <lane id=":cavan_3_0" index="0" speed="10.00" length="21.87" shape="1688.40,2636.30 1686.66,2632.73 1686.93,2628.26 1689.20,2622.89 1693.48,2616.62"/>
    </edge>
    <edge id=":cavan_4" function="internal">
        <lane id=":cavan_4_0" index="0" speed="6.24" length="12.73" shape="1688.40,2636.30 1688.07,2633.88 1690.06,2631.29 1693.20,2629.24 1696.37,2628.40"/>
    </edge>
    <edge id=":cavan_5" function="internal">