<?xml version="1.0" encoding="UTF-8"?>

<!-- generated on 2025-02-19 13:02:34 by Eclipse SUMO netconvert Version 1.18.0
<configuration xmlns:xsi="http://www.w3.org/2001/XMLSchema-instance" xsi:noNamespaceSchemaLocation="http://sumo.dlr.de/xsd/netconvertConfiguration.xsd">

    <input>
        <node-files value="nod.xml"/>
        <edge-files value="edge_xmls/09750.xml"/>
    </input>

    <output>
        <output-file value="networks/09750.net.xml"/>
    </output>

</configuration>
-->

<net version="1.16" junctionCornerDetail="5" limitTurnSpeed="5.50" xmlns:xsi="http://www.w3.org/2001/XMLSchema-instance" xsi:noNamespaceSchemaLocation="http://sumo.dlr.de/xsd/net_file.xsd">

    <location netOffset="-682.00,4368.00" convBoundary="0.00,0.00,2498.00,3881.00" origBoundary="682.00,-4368.00,3180.00,-487.00" projParameter="!"/>

    <edge id=":antrim_0" function="internal">
        <lane id=":antrim_0_0" index="0" speed="10.00" length="47.91" shape="2289.27,3456.87 2288.70,3471.20 2284.85,3481.28 2276.79,3486.54 2263.64,3486.39"/>
    </edge>
    <edge id=":antrim_1" function="internal">
        <lane id=":antrim_1_0" index="0" speed="10.00" length="44.75" shape="2289.27,3456.87 2288.44,3470.22 2284.29,3479.80 2276.50,3484.37 2264.72,3482.67"/>
    </edge>
    <edge id=":antrim_2" function="internal">
        <lane id=":antrim_2_0" index="0" speed="7.68" length="25.12" shape="2286.12,3457.85 2283.64,3460.26 2277.63,3457.93 2271.03,3452.97 2266.76,3447.47"/>
    </edge>
    <edge id=":antrim_3" function="internal">
        <lane id=":antrim_3_0" index="0" speed="7.65" length="24.94" shape="2286.12,3457.85 2283.67,3460.21 2277.74,3457.81 2271.23,3452.80 2267.03,3447.29"/>
    </edge>
    <edge id=":antrim_4" function="internal">
        <lane id=":antrim_4_0" index="0" speed="5.81" length="14.18" shape="2286.12,3457.85 2284.93,3461.47 2281.94,3463.51 2278.61,3463.48 2276.41,3460.87"/>
    </edge>
    <edge id=":antrim_5" function="internal">
        <lane id=":antrim_5_0" index="0" speed="4.45" length="7.75" shape="2286.12,3457.85 2285.23,3459.38 2283.15,3460.46 2280.98,3460.71 2279.85,3459.80"/>
    </edge>
    <edge id=":antrim_6" function="internal">
        <lane id=":antrim_6_0" index="0" speed="10.00" length="43.03" shape="2284.34,3458.40 2284.64,3471.40 2281.88,3480.96 2275.18,3486.24 2263.64,3486.39"/>
    </edge>
    <edge id=":antrim_7" function="internal">
        <lane id=":antrim_7_0" index="0" speed="10.00" length="39.51" shape="2284.34,3458.40 2284.33,3470.33 2281.30,3479.30 2274.88,3483.88 2264.72,3482.67"/>
    </edge>
    <edge id=":antrim_8" function="internal">
        <lane id=":antrim_8_0" index="0" speed="7.98" length="27.92" shape="2284.34,3458.40 2282.73,3463.01 2277.68,3461.20 2271.56,3455.26 2266.76,3447.47"/>
    </edge>
    <edge id=":antrim_9" function="internal">
        <lane id=":antrim_9_0" index="0" speed="7.35" length="23.39" shape="2284.34,3458.40 2282.31,3460.43 2276.94,3457.78 2270.94,3452.66 2267.03,3447.29"/>
    </edge>
    <edge id=":antrim_10" function="internal">
        <lane id=":antrim_10_0" index="0" speed="4.93" length="9.80" shape="2284.34,3458.40 2283.33,3460.32 2280.76,3461.67 2278.00,3461.99 2276.41,3460.87"/>
    </edge>
    <edge id=":antrim_11" function="internal">
        <lane id=":antrim_11_0" index="0" speed="4.21" length="6.86" shape="2284.34,3458.40 2283.74,3460.44 2282.79,3461.35 2281.49,3461.13 2279.85,3459.80"/>
    </edge>
    <edge id=":antrim_12" function="internal">
        <lane id=":antrim_12_0" index="0" speed="3.33" length="3.34" shape="2279.46,3459.92 2279.82,3461.10 2280.01,3461.48 2280.01,3461.04 2279.85,3459.80"/>
    </edge>
    <edge id=":antrim_13" function="internal">
        <lane id=":antrim_13_0" index="0" speed="10.00" length="33.69" shape="2279.46,3459.92 2279.24,3467.90 2275.73,3476.98 2270.14,3484.16 2263.64,3486.39"/>
    </edge>
    <edge id=":antrim_14" function="internal">
        <lane id=":antrim_14_0" index="0" speed="9.53" length="30.55" shape="2279.46,3459.92 2279.35,3467.52 2276.11,3475.68 2270.87,3481.64 2264.72,3482.67"/>
    </edge>
    <edge id=":antrim_15" function="internal">
        <lane id=":antrim_15_0" index="0" speed="6.62" length="19.72" shape="2279.46,3459.92 2278.48,3461.15 2274.58,3457.88 2269.94,3452.53 2266.76,3447.47"/>
    </edge>
    <edge id=":antrim_16" function="internal">
        <lane id=":antrim_16_0" index="0" speed="6.59" length="19.62" shape="2279.46,3459.92 2278.51,3461.11 2274.69,3457.78 2270.15,3452.37 2267.03,3447.29"/>
    </edge>
    <edge id=":antrim_17" function="internal">
        <lane id=":antrim_17_0" index="0" speed="3.65" length="4.67" shape="2279.46,3459.92 2279.05,3461.30 2278.41,3461.92 2277.53,3461.78 2276.41,3460.87"/>
    </edge>
    <edge id=":antrim_18" function="internal">
        <lane id=":antrim_18_0" index="0" speed="4.63" length="8.45" shape="2278.65,3460.17 2279.66,3463.12 2280.19,3464.04 2280.26,3462.93 2279.85,3459.80"/>
    </edge>
    <edge id=":antrim_19" function="internal">
        <lane id=":antrim_19_0" index="0" speed="10.00" length="33.16" shape="2278.65,3460.17 2278.66,3468.08 2275.42,3477.08 2270.04,3484.19 2263.64,3486.39"/>
    </edge>
    <edge id=":antrim_20" function="internal">
        <lane id=":antrim_20_0" index="0" speed="9.38" length="29.97" shape="2278.65,3460.17 2278.75,3467.67 2275.77,3475.74 2270.75,3481.65 2264.72,3482.67"/>
    </edge>
    <edge id=":antrim_21" function="internal">
        <lane id=":antrim_21_0" index="0" speed="6.50" length="19.17" shape="2278.65,3460.17 2277.84,3461.27 2274.20,3457.90 2269.81,3452.49 2266.76,3447.47"/>
    </edge>
    <edge id=":antrim_22" function="internal">
        <lane id=":antrim_22_0" index="0" speed="10.00" length="82.70" shape="2278.65,3460.17 2269.26,3430.64 2265.75,3420.91 2268.13,3430.99 2276.41,3460.87"/>
    </edge>
    <edge id=":antrim_23" function="internal">
        <lane id=":antrim_23_0" index="0" speed="7.37" length="25.34" shape="2278.65,3460.17 2270.92,3461.31 2266.40,3459.54 2265.10,3454.87 2267.03,3447.29"/>
    </edge>
    <edge id=":antrim_24" function="internal">
        <lane id=":antrim_24_0" index="0" speed="5.48" length="12.53" shape="2262.07,3450.63 2264.74,3454.33 2265.96,3455.34 2265.73,3453.67 2264.05,3449.30"/>
    </edge>
    <edge id=":antrim_25" function="internal">
        <lane id=":antrim_25_0" index="0" speed="5.71" length="13.74" shape="2262.07,3450.63 2265.00,3454.68 2266.35,3455.78 2266.13,3453.92 2264.32,3449.12"/>
    </edge>
    <edge id=":antrim_26" function="internal">
        <lane id=":antrim_26_0" index="0" speed="8.36" length="30.47" shape="2262.07,3450.63 2270.35,3462.22 2275.50,3467.80 2277.52,3467.34 2276.41,3460.87"/>
    </edge>
    <edge id=":antrim_27" function="internal">
        <lane id=":antrim_27_0" index="0" speed="9.07" length="34.51" shape="2262.07,3450.63 2271.15,3463.03 2277.14,3468.69 2280.04,3467.61 2279.85,3459.80"/>
    </edge>
    <edge id=":antrim_28" function="internal">
        <lane id=":antrim_28_0" index="0" speed="10.00" length="38.47" shape="2262.07,3450.63 2265.64,3459.56 2267.99,3471.90 2267.78,3482.54 2263.64,3486.39"/>
    </edge>
    <edge id=":antrim_29" function="internal">
        <lane id=":antrim_29_0" index="0" speed="10.00" length="42.48" shape="2262.07,3450.63 2269.04,3462.77 2273.40,3474.57 2272.75,3482.41 2264.72,3482.67"/>
    </edge>
    <edge id=":antrim_30" function="internal">
        <lane id=":antrim_30_0" index="0" speed="7.50" length="24.58" shape="2256.81,3449.65 2263.18,3457.08 2266.50,3459.49 2266.79,3456.90 2264.05,3449.30"/>
    </edge>
    <edge id=":antrim_31" function="internal">
        <lane id=":antrim_31_0" index="0" speed="7.60" length="25.26" shape="2256.81,3449.65 2263.33,3457.24 2266.75,3459.68 2267.08,3456.97 2264.32,3449.12"/>
    </edge>
    <edge id=":antrim_32" function="internal">
        <lane id=":antrim_32_0" index="0" speed="9.18" length="36.06" shape="2256.81,3449.65 2267.59,3462.39 2274.45,3468.51 2277.39,3468.00 2276.41,3460.87"/>
    </edge>
    <edge id=":antrim_33" function="internal">
        <lane id=":antrim_33_0" index="0" speed="9.81" length="39.45" shape="2256.81,3449.65 2268.26,3462.89 2275.91,3469.00 2279.77,3467.96 2279.85,3459.80"/>
    </edge>
    <edge id=":antrim_34" function="internal">
        <lane id=":antrim_34_0" index="0" speed="10.00" length="39.85" shape="2256.81,3449.65 2261.44,3458.56 2265.57,3471.26 2267.03,3482.33 2263.64,3486.39"/>
    </edge>
    <edge id=":antrim_35" function="internal">
        <lane id=":antrim_35_0" index="0" speed="9.50" length="36.52" shape="2256.81,3449.65 2261.55,3458.19 2265.96,3469.95 2267.77,3479.81 2264.72,3482.67"/>
    </edge>
    <edge id=":antrim_36" function="internal">
        <lane id=":antrim_36_0" index="0" speed="7.95" length="27.52" shape="2255.54,3450.72 2262.85,3458.60 2266.70,3460.99 2267.10,3457.89 2264.05,3449.30"/>
    </edge>
    <edge id=":antrim_37" function="internal">
        <lane id=":antrim_37_0" index="0" speed="8.04" length="28.08" shape="2255.54,3450.72 2262.98,3458.72 2266.92,3461.12 2267.37,3457.92 2264.32,3449.12"/>
    </edge>
    <edge id=":antrim_38" function="internal">
        <lane id=":antrim_38_0" index="0" speed="9.35" length="37.02" shape="2255.54,3450.72 2266.94,3463.23 2274.22,3469.09 2277.38,3468.30 2276.41,3460.87"/>
    </edge>
    <edge id=":antrim_39" function="internal">
        <lane id=":antrim_39_0" index="0" speed="9.97" length="40.25" shape="2255.54,3450.72 2267.56,3463.64 2275.62,3469.46 2279.72,3468.18 2279.85,3459.80"/>
    </edge>
    <edge id=":antrim_40" function="internal">
        <lane id=":antrim_40_0" index="0" speed="10.00" length="39.10" shape="2255.54,3450.72 2260.46,3459.39 2265.03,3471.72 2266.87,3482.47 2263.64,3486.39"/>
    </edge>
    <edge id=":antrim_41" function="internal">
        <lane id=":antrim_41_0" index="0" speed="9.35" length="35.83" shape="2255.54,3450.72 2260.57,3459.01 2265.41,3470.41 2267.60,3479.95 2264.72,3482.67"/>
    </edge>
    <edge id=":antrim_42" function="internal">
        <lane id=":antrim_42_0" index="0" speed="8.68" length="32.31" shape="2252.96,3453.07 2261.99,3461.32 2266.85,3463.44 2267.53,3459.43 2264.05,3449.30"/>
    </edge>
    <edge id=":antrim_43" function="internal">
        <lane id=":antrim_43_0" index="0" speed="8.75" length="32.73" shape="2252.96,3453.07 2262.09,3461.39 2267.02,3463.50 2267.76,3459.41 2264.32,3449.12"/>
    </edge>
    <edge id=":antrim_44" function="internal">
        <lane id=":antrim_44_0" index="0" speed="9.71" length="38.88" shape="2252.96,3453.07 2265.60,3464.94 2273.72,3470.19 2277.33,3468.84 2276.41,3460.87"/>
    </edge>
    <edge id=":antrim_45" function="internal">
        <lane id=":antrim_45_0" index="0" speed="10.00" length="41.89" shape="2252.96,3453.07 2266.15,3465.21 2275.03,3470.38 2279.59,3468.58 2279.85,3459.80"/>
    </edge>
    <edge id=":antrim_46" function="internal">
        <lane id=":antrim_46_0" index="0" speed="10.00" length="46.19" shape="2252.96,3453.07 2263.06,3464.64 2270.57,3476.29 2271.95,3484.66 2263.64,3486.39"/>
    </edge>
    <edge id=":antrim_47" function="internal">
        <lane id=":antrim_47_0" index="0" speed="9.05" length="34.45" shape="2252.96,3453.07 2258.60,3460.81 2264.29,3471.42 2267.27,3480.26 2264.72,3482.67"/>
    </edge>
    <edge id=":antrim_48" function="internal">
        <lane id=":antrim_48_0" index="0" speed="10.00" length="38.77" shape="2266.79,3477.10 2272.79,3478.40 2274.78,3473.90 2272.77,3463.59 2266.76,3447.47"/>
    </edge>
    <edge id=":antrim_49" function="internal">
        <lane id=":antrim_49_0" index="0" speed="10.00" length="38.94" shape="2266.79,3477.10 2272.82,3478.40 2274.87,3473.86 2272.94,3463.49 2267.03,3447.29"/>
    </edge>
    <edge id=":antrim_50" function="internal">
        <lane id=":antrim_50_0" index="0" speed="8.94" length="28.38" shape="2266.79,3477.10 2273.64,3479.37 2277.52,3477.42 2278.45,3471.25 2276.41,3460.87"/>
    </edge>
    <edge id=":antrim_51" function="internal">
        <lane id=":antrim_51_0" index="0" speed="9.51" length="30.44" shape="2266.79,3477.10 2274.03,3479.40 2278.62,3477.28 2280.56,3470.75 2279.85,3459.80"/>
    </edge>
    <edge id=":antrim_52" function="internal">
        <lane id=":antrim_52_0" index="0" speed="5.78" length="13.62" shape="2266.79,3477.10 2269.09,3479.77 2269.03,3483.08 2267.07,3485.73 2263.64,3486.39"/>
    </edge>
    <edge id=":antrim_53" function="internal">
        <lane id=":antrim_53_0" index="0" speed="4.66" length="8.67" shape="2266.79,3477.10 2268.36,3479.27 2268.54,3480.92 2267.32,3482.05 2264.72,3482.67"/>
    </edge>
    <edge id=":athlone_0" function="internal">
        <lane id=":athlone_0_0" index="0" speed="8.26" length="30.22" shape="1276.79,2000.00 1269.98,1989.13 1265.99,1984.81 1264.82,1987.07 1266.47,1995.88"/>
    </edge>
    <edge id=":athlone_1" function="internal">
        <lane id=":athlone_1_0" index="0" speed="8.55" length="29.98" shape="1276.79,2000.00 1270.14,1989.85 1265.54,1985.88 1263.01,1988.08 1262.54,1996.47"/>
    </edge>
    <edge id=":athlone_2" function="internal">
        <lane id=":athlone_2_0" index="0" speed="10.00" length="38.68" shape="1276.79,2000.00 1267.71,1984.86 1260.96,1974.73 1256.54,1969.62 1254.46,1969.52"/>
    </edge>
    <edge id=":athlone_3" function="internal">
        <lane id=":athlone_3_0" index="0" speed="10.00" length="44.30" shape="1276.79,2000.00 1267.09,1984.03 1259.39,1973.01 1253.70,1966.95 1250.01,1965.83"/>
    </edge>
    <edge id=":athlone_4" function="internal">
        <lane id=":athlone_4_0" index="0" speed="10.00" length="52.77" shape="1276.79,2000.00 1267.15,1982.41 1260.76,1968.47 1257.64,1958.19 1257.77,1951.56"/>
    </edge>
    <edge id=":athlone_5" function="internal">
        <lane id=":athlone_5_0" index="0" speed="10.00" length="52.53" shape="1276.79,2000.00 1267.17,1982.40 1260.86,1968.49 1257.88,1958.27 1258.23,1951.73"/>
    </edge>
    <edge id=":athlone_6" function="internal">
        <lane id=":athlone_6_0" index="0" speed="10.00" length="56.43" shape="1276.79,2000.00 1277.99,1989.56 1285.63,1973.99 1295.76,1959.63 1304.43,1952.84"/>
    </edge>
    <edge id=":athlone_7" function="internal">
        <lane id=":athlone_7_0" index="0" speed="10.00" length="39.42" shape="1276.79,2000.00 1272.71,1990.71 1268.45,1977.86 1265.98,1966.74 1267.25,1962.59"/>
    </edge>
    <edge id=":athlone_8" function="internal">
        <lane id=":athlone_8_0" index="0" speed="4.63" length="8.71" shape="1276.79,2000.00 1276.63,1997.86 1278.09,1996.26 1280.23,1995.75 1282.11,1996.87"/>
    </edge>
    <edge id=":athlone_9" function="internal">
        <lane id=":athlone_9_0" index="0" speed="4.36" length="7.53" shape="1276.79,2000.00 1276.92,1997.68 1277.71,1996.48 1279.14,1996.38 1281.24,1997.39"/>
    </edge>
    <edge id=":athlone_10" function="internal">
        <lane id=":athlone_10_0" index="0" speed="6.75" length="20.74" shape="1303.77,1950.61 1296.36,1952.63 1294.00,1953.67 1296.69,1953.74 1304.43,1952.84"/>
    </edge>
    <edge id=":athlone_11" function="internal">
        <lane id=":athlone_11_0" index="0" speed="9.79" length="39.09" shape="1303.77,1950.61 1285.87,1955.29 1273.82,1958.85 1267.61,1961.28 1267.25,1962.59"/>
    </edge>
    <edge id=":athlone_12" function="internal">
        <lane id=":athlone_12_0" index="0" speed="10.00" length="64.36" shape="1303.77,1950.61 1285.48,1957.77 1275.77,1967.87 1274.65,1980.90 1282.11,1996.87"/>
    </edge>
    <edge id=":athlone_13" function="internal">
        <lane id=":athlone_13_0" index="0" speed="10.00" length="64.87" shape="1303.77,1950.61 1285.40,1957.81 1275.52,1968.00 1274.14,1981.20 1281.24,1997.39"/>
    </edge>
    <edge id=":athlone_14" function="internal">
        <lane id=":athlone_14_0" index="0" speed="10.00" length="66.45" shape="1303.77,1950.61 1284.25,1957.77 1271.53,1967.70 1265.60,1980.41 1266.47,1995.88"/>
    </edge>
    <edge id=":athlone_15" function="internal">
        <lane id=":athlone_15_0" index="0" speed="10.00" length="67.50" shape="1303.77,1950.61 1285.09,1957.53 1271.99,1967.49 1264.47,1980.47 1262.54,1996.47"/>
    </edge>
    <edge id=":athlone_16" function="internal">
        <lane id=":athlone_16_0" index="0" speed="10.00" length="53.38" shape="1303.77,1950.61 1283.22,1956.19 1268.16,1961.21 1258.57,1965.65 1254.46,1969.52"/>
    </edge>
    <edge id=":athlone_17" function="internal">
        <lane id=":athlone_17_0" index="0" speed="10.00" length="55.89" shape="1303.77,1950.61 1293.95,1953.18 1276.74,1957.83 1259.61,1962.67 1250.01,1965.83"/>
    </edge>
    <edge id=":athlone_18" function="internal">
        <lane id=":athlone_18_0" index="0" speed="10.00" length="46.37" shape="1303.77,1950.61 1292.77,1952.15 1277.07,1953.18 1263.22,1953.15 1257.77,1951.56"/>
    </edge>
    <edge id=":athlone_19" function="internal">
        <lane id=":athlone_19_0" index="0" speed="10.00" length="45.92" shape="1303.77,1950.61 1292.81,1952.18 1277.22,1953.26 1263.52,1953.30 1258.23,1951.73"/>
    </edge>
    <edge id=":athlone_20" function="internal">
        <lane id=":athlone_20_0" index="0" speed="7.49" length="24.68" shape="1302.68,1947.01 1294.54,1950.77 1292.11,1952.99 1295.41,1953.68 1304.43,1952.84"/>
    </edge>
    <edge id=":athlone_21" function="internal">
        <lane id=":athlone_21_0" index="0" speed="10.00" length="38.74" shape="1302.68,1947.01 1286.63,1953.67 1275.38,1958.48 1268.92,1961.46 1267.25,1962.59"/>
    </edge>
    <edge id=":athlone_22" function="internal">
        <lane id=":athlone_22_0" index="0" speed="10.00" length="64.66" shape="1302.68,1947.01 1285.48,1956.66 1276.32,1968.19 1275.20,1981.60 1282.11,1996.87"/>
    </edge>
    <edge id=":athlone_23" function="internal">
        <lane id=":athlone_23_0" index="0" speed="10.00" length="65.20" shape="1302.68,1947.01 1285.39,1956.71 1276.05,1968.34 1274.66,1981.90 1281.24,1997.39"/>
    </edge>
    <edge id=":athlone_24" function="internal">
        <lane id=":athlone_24_0" index="0" speed="10.00" length="66.83" shape="1302.68,1947.01 1283.92,1956.84 1271.63,1968.27 1265.81,1981.28 1266.47,1995.88"/>
    </edge>
    <edge id=":athlone_25" function="internal">
        <lane id=":athlone_25_0" index="0" speed="10.00" length="68.14" shape="1302.68,1947.01 1284.53,1956.53 1271.78,1967.95 1264.45,1981.26 1262.54,1996.47"/>
        <lane id=":athlone_25_1" index="1" speed="10.00" length="72.09" shape="1301.46,1944.05 1282.40,1954.09 1269.03,1966.20 1261.34,1980.37 1259.34,1996.63"/>
    </edge>
    <edge id=":athlone_27" function="internal">
        <lane id=":athlone_27_0" index="0" speed="10.00" length="53.90" shape="1301.46,1944.05 1281.94,1952.46 1267.60,1959.50 1258.44,1965.19 1254.46,1969.52"/>
    </edge>
    <edge id=":athlone_28" function="internal">
        <lane id=":athlone_28_0" index="0" speed="10.00" length="55.87" shape="1301.46,1944.05 1250.01,1965.83"/>
    </edge>
    <edge id=":athlone_29" function="internal">
        <lane id=":athlone_29_0" index="0" speed="10.00" length="44.72" shape="1301.46,1944.05 1290.98,1947.17 1276.02,1950.46 1262.87,1952.43 1257.77,1951.56"/>
    </edge>
    <edge id=":athlone_30" function="internal">
        <lane id=":athlone_30_0" index="0" speed="10.00" length="44.30" shape="1301.46,1944.05 1291.01,1947.20 1276.17,1950.55 1263.16,1952.58 1258.23,1951.73"/>
    </edge>
    <edge id=":athlone_31" function="internal">
        <lane id=":athlone_31_0" index="0" speed="9.50" length="37.43" shape="1271.59,1951.94 1270.14,1954.47 1275.13,1955.47 1286.56,1954.92 1304.43,1952.84"/>
    </edge>
    <edge id=":athlone_32" function="internal">
        <lane id=":athlone_32_0" index="0" speed="6.82" length="15.19" shape="1271.59,1951.94 1266.84,1955.77 1264.53,1958.83 1264.67,1961.10 1267.25,1962.59"/>
    </edge>
    <edge id=":athlone_33" function="internal">
        <lane id=":athlone_33_0" index="0" speed="10.00" length="49.87" shape="1271.59,1951.94 1267.23,1958.30 1267.53,1967.91 1272.49,1980.76 1282.11,1996.87"/>
    </edge>
    <edge id=":athlone_34" function="internal">
        <lane id=":athlone_34_0" index="0" speed="10.00" length="50.09" shape="1271.59,1951.94 1267.16,1958.34 1267.29,1968.04 1271.98,1981.06 1281.24,1997.39"/>
    </edge>
    <edge id=":athlone_35" function="internal">
        <lane id=":athlone_35_0" index="0" speed="10.00" length="46.62" shape="1271.59,1951.94 1266.11,1958.34 1263.43,1967.79 1263.55,1980.31 1266.47,1995.88"/>
    </edge>
    <edge id=":athlone_36" function="internal">
        <lane id=":athlone_36_0" index="0" speed="10.00" length="48.02" shape="1271.59,1951.94 1265.59,1958.43 1261.55,1968.04 1259.47,1980.77 1259.34,1996.63"/>
    </edge>
    <edge id=":athlone_37" function="internal">
        <lane id=":athlone_37_0" index="0" speed="10.00" length="24.69" shape="1271.59,1951.94 1267.44,1955.25 1262.16,1960.06 1257.31,1965.21 1254.46,1969.52"/>
    </edge>
    <edge id=":athlone_38" function="internal">
        <lane id=":athlone_38_0" index="0" speed="10.00" length="25.68" shape="1271.59,1951.94 1267.12,1955.01 1260.94,1959.12 1254.69,1963.11 1250.01,1965.83"/>
    </edge>
    <edge id=":athlone_39" function="internal">
        <lane id=":athlone_39_0" index="0" speed="6.99" length="18.39" shape="1271.59,1951.94 1266.41,1954.77 1261.33,1956.12 1257.93,1955.29 1257.77,1951.56"/>
    </edge>
    <edge id=":athlone_40" function="internal">
        <lane id=":athlone_40_0" index="0" speed="6.35" length="15.23" shape="1271.59,1951.94 1267.72,1953.57 1262.89,1954.34 1259.06,1953.86 1258.23,1951.73"/>
    </edge>
    <edge id=":athlone_41" function="internal">
        <lane id=":athlone_41_0" index="0" speed="10.00" length="34.41" shape="1232.46,1930.89 1242.66,1942.30 1250.28,1949.55 1255.32,1952.64 1257.77,1951.56"/>
    </edge>
    <edge id=":athlone_42" function="internal">
        <lane id=":athlone_42_0" index="0" speed="10.00" length="34.87" shape="1232.46,1930.89 1242.73,1942.36 1250.44,1949.65 1255.61,1952.78 1258.23,1951.73"/>
    </edge>
    <edge id=":athlone_43" function="internal">
        <lane id=":athlone_43_0" index="0" speed="10.00" length="78.53" shape="1232.46,1930.89 1246.03,1942.91 1262.55,1950.58 1282.01,1953.89 1304.43,1952.84"/>
    </edge>
    <edge id=":athlone_44" function="internal">
        <lane id=":athlone_44_0" index="0" speed="10.00" length="47.15" shape="1232.46,1930.89 1238.59,1937.25 1249.27,1947.64 1260.24,1957.58 1267.25,1962.59"/>
    </edge>
    <edge id=":athlone_45" function="internal">
        <lane id=":athlone_45_0" index="0" speed="10.00" length="82.58" shape="1232.46,1930.89 1241.19,1942.22 1257.45,1963.75 1273.63,1985.35 1282.11,1996.87"/>
    </edge>
    <edge id=":athlone_46" function="internal">
        <lane id=":athlone_46_0" index="0" speed="10.00" length="82.47" shape="1232.46,1930.89 1241.07,1942.29 1257.05,1963.99 1272.93,1985.76 1281.24,1997.39"/>
    </edge>
    <edge id=":athlone_47" function="internal">
        <lane id=":athlone_47_0" index="0" speed="10.00" length="73.39" shape="1232.46,1930.89 1238.97,1941.97 1250.22,1963.00 1261.10,1984.22 1266.47,1995.88"/>
    </edge>
    <edge id=":athlone_48" function="internal">
        <lane id=":athlone_48_0" index="0" speed="10.00" length="71.18" shape="1232.46,1930.89 1237.96,1941.36 1246.93,1961.44 1255.39,1982.68 1259.34,1996.63"/>
    </edge>
    <edge id=":athlone_49" function="internal">
        <lane id=":athlone_49_0" index="0" speed="10.00" length="45.45" shape="1232.46,1930.89 1243.35,1944.48 1250.65,1955.44 1254.35,1963.79 1254.46,1969.52"/>
    </edge>
    <edge id=":athlone_50" function="internal">
        <lane id=":athlone_50_0" index="0" speed="10.00" length="41.62" shape="1232.46,1930.89 1242.14,1942.82 1249.18,1953.21 1252.24,1961.18 1250.01,1965.83"/>
    </edge>
    <edge id=":athlone_51" function="internal">
        <lane id=":athlone_51_0" index="0" speed="10.00" length="35.12" shape="1229.85,1933.33 1241.16,1943.77 1249.58,1950.29 1255.12,1952.89 1257.77,1951.56"/>
    </edge>
    <edge id=":athlone_52" function="internal">
        <lane id=":athlone_52_0" index="0" speed="10.00" length="35.57" shape="1229.85,1933.33 1241.22,1943.82 1249.74,1950.38 1255.41,1953.02 1258.23,1951.73"/>
    </edge>
    <edge id=":athlone_53" function="internal">
        <lane id=":athlone_53_0" index="0" speed="10.00" length="79.78" shape="1229.85,1933.33 1244.53,1944.29 1261.85,1951.20 1281.81,1954.05 1304.43,1952.84"/>
    </edge>
    <edge id=":athlone_54" function="internal">
        <lane id=":athlone_54_0" index="0" speed="10.00" length="47.55" shape="1229.85,1933.33 1236.53,1939.17 1248.09,1948.74 1259.88,1957.92 1267.25,1962.59"/>
    </edge>
    <edge id=":athlone_55" function="internal">
        <lane id=":athlone_55_0" index="0" speed="10.00" length="82.28" shape="1229.85,1933.33 1239.14,1944.14 1256.28,1964.85 1273.27,1985.69 1282.11,1996.87"/>
    </edge>
    <edge id=":athlone_56" function="internal">
        <lane id=":athlone_56_0" index="0" speed="10.00" length="82.13" shape="1229.85,1933.33 1239.01,1944.22 1255.88,1965.09 1272.57,1986.09 1281.24,1997.39"/>
    </edge>
    <edge id=":athlone_57" function="internal">
        <lane id=":athlone_57_0" index="0" speed="10.00" length="72.54" shape="1229.85,1933.33 1236.91,1943.89 1249.05,1964.10 1260.74,1984.55 1266.47,1995.88"/>
    </edge>
    <edge id=":athlone_58" function="internal">
        <lane id=":athlone_58_0" index="0" speed="10.00" length="70.04" shape="1229.85,1933.33 1235.90,1943.28 1245.76,1962.54 1255.03,1983.01 1259.34,1996.63"/>
    </edge>
    <edge id=":athlone_59" function="internal">
        <lane id=":athlone_59_0" index="0" speed="10.00" length="44.94" shape="1229.85,1933.33 1241.90,1945.81 1250.01,1956.01 1254.20,1963.91 1254.46,1969.52"/>
    </edge>
    <edge id=":athlone_60" function="internal">
        <lane id=":athlone_60_0" index="0" speed="10.00" length="38.68" shape="1229.85,1933.33 1236.12,1940.80 1243.46,1951.33 1249.04,1960.98 1250.01,1965.83"/>
    </edge>
    <edge id=":athlone_61" function="internal">
        <lane id=":athlone_61_0" index="0" speed="5.31" length="11.77" shape="1252.66,1969.13 1251.88,1973.39 1251.93,1974.88 1252.78,1973.59 1254.46,1969.52"/>
    </edge>
    <edge id=":athlone_62" function="internal">
        <lane id=":athlone_62_0" index="0" speed="4.64" length="6.17" shape="1252.66,1969.13 1252.90,1966.97 1252.54,1965.71 1251.58,1965.33 1250.01,1965.83"/>
    </edge>
    <edge id=":athlone_63" function="internal">
        <lane id=":athlone_63_0" index="0" speed="10.00" length="18.30" shape="1252.66,1969.13 1253.65,1964.98 1254.95,1960.27 1256.39,1955.60 1257.77,1951.56"/>
    </edge>
    <edge id=":athlone_64" function="internal">
        <lane id=":athlone_64_0" index="0" speed="10.00" length="18.28" shape="1252.66,1969.13 1253.69,1964.99 1255.09,1960.32 1256.67,1955.70 1258.23,1951.73"/>
    </edge>
    <edge id=":athlone_65" function="internal">
        <lane id=":athlone_65_0" index="0" speed="10.00" length="55.49" shape="1252.66,1969.13 1256.65,1964.52 1266.60,1960.28 1282.53,1956.38 1304.43,1952.84"/>
    </edge>
    <edge id=":athlone_66" function="internal">
        <lane id=":athlone_66_0" index="0" speed="8.56" length="17.33" shape="1252.66,1969.13 1254.67,1965.76 1258.43,1963.40 1262.96,1962.27 1267.25,1962.59"/>
    </edge>
    <edge id=":athlone_67" function="internal">
        <lane id=":athlone_67_0" index="0" speed="10.00" length="40.92" shape="1252.66,1969.13 1256.92,1970.73 1265.84,1978.73 1275.53,1988.87 1282.11,1996.87"/>
    </edge>
    <edge id=":athlone_68" function="internal">
        <lane id=":athlone_68_0" index="0" speed="10.00" length="40.65" shape="1252.66,1969.13 1256.81,1970.77 1265.47,1978.92 1274.87,1989.24 1281.24,1997.39"/>
    </edge>
    <edge id=":athlone_69" function="internal">
        <lane id=":athlone_69_0" index="0" speed="8.71" length="31.49" shape="1252.66,1969.13 1255.11,1969.25 1259.28,1976.74 1263.59,1987.12 1266.47,1995.88"/>
    </edge>
    <edge id=":athlone_70" function="internal">
        <lane id=":athlone_70_0" index="0" speed="9.54" length="41.33" shape="1252.66,1969.13 1264.64,1973.50 1269.75,1979.54 1267.98,1987.25 1259.34,1996.63"/>
    </edge>
    <edge id=":belfast_0" function="internal">
        <lane id=":belfast_0_0" index="0" speed="8.55" length="33.00" shape="2487.60,3316.46 2491.21,3327.68 2493.65,3331.03 2494.91,3326.51 2495.00,3314.13"/>
    </edge>
    <edge id=":belfast_1" function="internal">
        <lane id=":belfast_1_0" index="0" speed="10.00" length="46.66" shape="2487.60,3316.46 2492.17,3333.81 2495.24,3348.18 2496.10,3357.98 2494.00,3361.60"/>
    </edge>
    <edge id=":belfast_2" function="internal">
        <lane id=":belfast_2_0" index="0" speed="10.00" length="41.09" shape="2487.60,3316.46 2486.54,3325.61 2481.28,3337.15 2474.03,3346.43 2467.02,3348.85"/>
    </edge>
    <edge id=":belfast_3" function="internal">
        <lane id=":belfast_3_0" index="0" speed="10.00" length="37.42" shape="2487.60,3316.46 2486.66,3325.11 2481.68,3335.46 2474.82,3343.38 2468.20,3344.72"/>
    </edge>
    <edge id=":belfast_4" function="internal">
        <lane id=":belfast_4_0" index="0" speed="9.32" length="33.80" shape="2487.60,3316.46 2487.84,3325.29 2485.52,3335.94 2481.46,3343.95 2476.46,3344.84"/>
    </edge>
    <edge id=":belfast_5" function="internal">
        <lane id=":belfast_5_0" index="0" speed="9.34" length="36.12" shape="2487.60,3316.46 2489.39,3328.10 2488.66,3338.80 2485.25,3344.73 2479.01,3342.07"/>
    </edge>
    <edge id=":belfast_6" function="internal">
        <lane id=":belfast_6_0" index="0" speed="5.26" length="11.70" shape="2487.60,3316.46 2487.13,3319.35 2484.77,3321.04 2481.84,3321.09 2479.70,3319.06"/>
    </edge>
    <edge id=":belfast_7" function="internal">