<?xml version="1.0" encoding="UTF-8"?>

<!-- generated on 2025-02-19 13:02:41 by Eclipse SUMO netconvert Version 1.18.0
<configuration xmlns:xsi="http://www.w3.org/2001/XMLSchema-instance" xsi:noNamespaceSchemaLocation="http://sumo.dlr.de/xsd/netconvertConfiguration.xsd">

    <input>
        <node-files value="nod.xml"/>
        <edge-files value="edge_xmls/09787.xml"/>
    </input>

    <output>
        <output-file value="networks/09787.net.xml"/>
    </output>

</configuration>
-->

<net version="1.16" junctionCornerDetail="5" limitTurnSpeed="5.50" xmlns:xsi="http://www.w3.org/2001/XMLSchema-instance" xsi:noNamespaceSchemaLocation="http://sumo.dlr.de/xsd/net_file.xsd">

    <location netOffset="-682.00,4368.00" convBoundary="0.00,0.00,2498.00,3881.00" origBoundary="682.00,-4368.00,3180.00,-487.00" projParameter="!"/>

    <edge id=":antrim_0" function="internal">
        <lane id=":antrim_0_0" index="0" speed="10.00" length="17.93" shape="2293.64,3486.22 2289.73,3487.93 2285.57,3488.45 2281.16,3487.78 2276.51,3485.92"/>
    </edge>
    <edge id=":antrim_1" function="internal">
        <lane id=":antrim_1_0" index="0" speed="10.00" length="39.89" shape="2293.64,3486.22 2288.38,3485.93 2283.29,3479.59 2278.38,3468.75 2273.67,3454.95"/>
    </edge>
    <edge id=":antrim_2" function="internal">
        <lane id=":antrim_2_0" index="0" speed="10.00" length="38.40" shape="2293.64,3486.22 2289.12,3485.62 2287.03,3478.16 2286.74,3466.20 2287.62,3452.10"/>
    </edge>
    <edge id=":antrim_3" function="internal">
        <lane id=":antrim_3_0" index="0" speed="10.00" length="40.44" shape="2290.81,3452.38 2289.11,3466.79 2286.40,3478.46 2282.32,3485.48 2276.51,3485.92"/>
    </edge>
    <edge id=":antrim_4" function="internal">
        <lane id=":antrim_4_0" index="0" speed="7.56" length="23.87" shape="2290.81,3452.38 2288.18,3458.12 2283.00,3460.71 2277.44,3459.77 2273.67,3454.95"/>
    </edge>
    <edge id=":antrim_5" function="internal">
        <lane id=":antrim_5_0" index="0" speed="3.65" length="4.67" shape="2290.81,3452.38 2289.91,3453.50 2289.08,3453.83 2288.32,3453.36 2287.62,3452.10"/>
    </edge>
    <edge id=":antrim_6" function="internal">
        <lane id=":antrim_6_0" index="0" speed="6.85" length="20.74" shape="2283.69,3452.37 2284.74,3459.89 2285.75,3462.35 2286.71,3459.76 2287.62,3452.10"/>
    </edge>
    <edge id=":antrim_7" function="internal">
        <lane id=":antrim_7_0" index="0" speed="10.00" length="38.93" shape="2283.69,3452.37 2284.76,3466.29 2284.42,3478.08 2281.92,3485.40 2276.51,3485.92"/>
    </edge>
    <edge id=":antrim_8" function="internal">
        <lane id=":antrim_8_0" index="0" speed="5.84" length="14.48" shape="2283.69,3452.37 2282.62,3455.96 2279.55,3457.86 2276.04,3457.66 2273.67,3454.95"/>
    </edge>
    <edge id=":antrim_9" function="internal">
        <lane id=":antrim_9_0" index="0" speed="7.54" length="25.03" shape="2281.45,3452.95 2283.35,3461.73 2285.01,3464.52 2286.44,3461.31 2287.62,3452.10"/>
    </edge>
    <edge id=":antrim_10" function="internal">
        <lane id=":antrim_10_0" index="0" speed="10.00" length="38.21" shape="2281.45,3452.95 2283.36,3466.50 2283.78,3478.14 2281.80,3485.43 2276.51,3485.92"/>
    </edge>
    <edge id=":antrim_11" function="internal">
        <lane id=":antrim_11_0" index="0" speed="5.28" length="11.74" shape="2281.45,3452.95 2280.26,3456.37 2278.56,3457.84 2276.36,3457.37 2273.67,3454.95"/>
    </edge>
    <edge id=":antrim_12" function="internal">
        <lane id=":antrim_12_0" index="0" speed="7.42" length="23.32" shape="2273.80,3470.34 2276.77,3473.29 2277.74,3471.71 2276.71,3465.59 2273.67,3454.95"/>
    </edge>
    <edge id=":antrim_13" function="internal">
        <lane id=":antrim_13_0" index="0" speed="9.36" length="32.41" shape="2273.80,3470.34 2278.78,3474.60 2282.74,3472.98 2285.69,3465.48 2287.62,3452.10"/>
    </edge>
    <edge id=":antrim_14" function="internal">
        <lane id=":antrim_14_0" index="0" speed="7.21" length="21.06" shape="2273.80,3470.34 2277.57,3476.29 2280.08,3482.26 2280.13,3486.16 2276.51,3485.92"/>
    </edge>
    <edge id=":antrim_15" function="internal">
        <lane id=":antrim_15_0" index="0" speed="5.62" length="9.29" shape="2276.68,3492.56 2278.91,3490.84 2279.63,3489.16 2278.83,3487.52 2276.51,3485.92"/>
    </edge>
    <edge id=":antrim_16" function="internal">
        <lane id=":antrim_16_0" index="0" speed="10.00" length="39.11" shape="2276.68,3492.56 2279.27,3488.60 2279.63,3481.01 2277.76,3469.79 2273.67,3454.95"/>
    </edge>
    <edge id=":antrim_17" function="internal">
        <lane id=":antrim_17_0" index="0" speed="10.00" length="42.69" shape="2276.68,3492.56 2280.29,3488.34 2283.31,3480.18 2285.76,3468.10 2287.62,3452.10"/>
    </edge>
    <edge id=":athlone_0" function="internal">
        <lane id=":athlone_0_0" index="0" speed="3.41" length="3.45" shape="1255.79,1989.51 1255.67,1988.25 1255.50,1987.82 1255.25,1988.22 1254.94,1989.44"/>
    </edge>
    <edge id=":athlone_1" function="internal">
        <lane id=":athlone_1_0" index="0" speed="10.00" length="30.43" shape="1255.79,1989.51 1254.86,1977.48 1253.40,1968.66 1251.40,1963.06 1248.88,1960.67"/>
    </edge>
    <edge id=":athlone_2" function="internal">
        <lane id=":athlone_2_0" index="0" speed="10.00" length="36.25" shape="1255.79,1989.51 1255.35,1982.45 1254.54,1971.41 1253.57,1960.40 1252.65,1953.40"/>
    </edge>
    <edge id=":athlone_3" function="internal">
        <lane id=":athlone_3_0" index="0" speed="10.00" length="38.03" shape="1255.79,1989.51 1256.02,1982.10 1256.98,1970.36 1258.54,1958.80 1260.54,1951.91"/>
    </edge>
    <edge id=":athlone_4" function="internal">
        <lane id=":athlone_4_0" index="0" speed="10.00" length="41.85" shape="1255.79,1989.51 1256.19,1976.15 1258.82,1965.65 1263.69,1957.99 1270.80,1953.19"/>
    </edge>
    <edge id=":athlone_5" function="internal">
        <lane id=":athlone_5_0" index="0" speed="10.00" length="39.77" shape="1255.79,1989.51 1256.25,1976.28 1259.08,1966.49 1264.30,1960.15 1271.89,1957.24"/>
    </edge>
    <edge id=":athlone_6" function="internal">
        <lane id=":athlone_6_0" index="0" speed="10.00" length="38.45" shape="1255.79,1989.51 1258.47,1981.26 1265.94,1979.68 1275.56,1983.36 1284.69,1990.91"/>
    </edge>
    <edge id=":athlone_7" function="internal">
        <lane id=":athlone_7_0" index="0" speed="8.11" length="26.80" shape="1255.79,1989.51 1258.58,1986.31 1265.39,1987.34 1273.00,1991.09 1278.20,1996.05"/>
    </edge>
    <edge id=":athlone_8" function="internal">
        <lane id=":athlone_8_0" index="0" speed="4.88" length="9.69" shape="1255.79,1989.51 1256.68,1987.24 1258.89,1986.27 1261.25,1986.72 1262.64,1988.72"/>
    </edge>
    <edge id=":athlone_9" function="internal">
        <lane id=":athlone_9_0" index="0" speed="5.70" length="12.72" shape="1259.49,1989.29 1258.42,1984.97 1257.31,1983.55 1256.15,1985.04 1254.94,1989.44"/>
    </edge>
    <edge id=":athlone_10" function="internal">
        <lane id=":athlone_10_0" index="0" speed="10.00" length="31.18" shape="1259.49,1989.29 1256.99,1977.37 1254.39,1968.63 1251.69,1963.06 1248.88,1960.67"/>
    </edge>
    <edge id=":athlone_11" function="internal">
        <lane id=":athlone_11_0" index="0" speed="10.00" length="36.54" shape="1259.49,1989.29 1252.65,1953.40"/>
    </edge>
    <edge id=":athlone_12" function="internal">
        <lane id=":athlone_12_0" index="0" speed="10.00" length="38.08" shape="1259.49,1989.29 1257.61,1976.20 1257.16,1965.61 1258.14,1957.51 1260.54,1951.91"/>
    </edge>
    <edge id=":athlone_13" function="internal">
        <lane id=":athlone_13_0" index="0" speed="10.00" length="40.97" shape="1259.49,1989.29 1258.21,1976.06 1259.67,1965.63 1263.87,1958.00 1270.80,1953.19"/>
    </edge>
    <edge id=":athlone_14" function="internal">
        <lane id=":athlone_14_0" index="0" speed="10.00" length="35.79" shape="1259.49,1989.29 1259.79,1980.73 1262.51,1970.34 1266.82,1961.41 1271.89,1957.24"/>
    </edge>
    <edge id=":athlone_15" function="internal">
        <lane id=":athlone_15_0" index="0" speed="9.18" length="33.90" shape="1259.49,1989.29 1261.06,1982.25 1267.66,1980.99 1276.47,1984.29 1284.69,1990.91"/>
    </edge>
    <edge id=":athlone_16" function="internal">
        <lane id=":athlone_16_0" index="0" speed="7.34" length="22.78" shape="1259.49,1989.29 1261.45,1986.79 1267.15,1988.07 1273.70,1991.66 1278.20,1996.05"/>
    </edge>
    <edge id=":athlone_17" function="internal">
        <lane id=":athlone_17_0" index="0" speed="3.65" length="4.67" shape="1259.49,1989.29 1260.06,1987.97 1260.78,1987.43 1261.64,1987.69 1262.64,1988.72"/>
    </edge>
    <edge id=":athlone_18" function="internal">
        <lane id=":athlone_18_0" index="0" speed="5.62" length="13.68" shape="1279.50,1995.19 1276.37,1991.16 1275.11,1989.96 1275.72,1991.59 1278.20,1996.05"/>
    </edge>
    <edge id=":athlone_19" function="internal">
        <lane id=":athlone_19_0" index="0" speed="8.79" length="32.02" shape="1279.50,1995.19 1270.68,1984.37 1264.93,1979.68 1262.25,1981.14 1262.64,1988.72"/>
    </edge>
    <edge id=":athlone_20" function="internal">
        <lane id=":athlone_20_0" index="0" speed="10.00" length="35.89" shape="1279.50,1995.19 1270.42,1984.72 1263.30,1980.27 1258.14,1981.84 1254.94,1989.44"/>
    </edge>
    <edge id=":athlone_21" function="internal">
        <lane id=":athlone_21_0" index="0" speed="10.00" length="46.26" shape="1279.50,1995.19 1274.13,1988.30 1264.87,1976.93 1255.28,1966.07 1248.88,1960.67"/>
    </edge>
    <edge id=":athlone_22" function="internal">
        <lane id=":athlone_22_0" index="0" speed="10.00" length="49.72" shape="1279.50,1995.19 1274.20,1987.66 1265.37,1974.62 1256.89,1961.42 1252.65,1953.40"/>
    </edge>
    <edge id=":athlone_23" function="internal">
        <lane id=":athlone_23_0" index="0" speed="10.00" length="48.87" shape="1279.50,1995.19 1268.76,1979.67 1262.02,1967.29 1259.28,1958.03 1260.54,1951.91"/>
    </edge>
    <edge id=":athlone_24" function="internal">
        <lane id=":athlone_24_0" index="0" speed="10.00" length="43.92" shape="1279.50,1995.19 1275.14,1985.93 1271.14,1972.35 1269.14,1959.68 1270.80,1953.19"/>
    </edge>
    <edge id=":athlone_25" function="internal">
        <lane id=":athlone_25_0" index="0" speed="10.00" length="40.15" shape="1279.50,1995.19 1275.16,1986.38 1271.27,1973.87 1269.60,1962.54 1271.89,1957.24"/>
    </edge>
    <edge id=":athlone_26" function="internal">
        <lane id=":athlone_26_0" index="0" speed="4.48" length="7.97" shape="1279.50,1995.19 1279.53,1993.53 1281.03,1991.74 1283.06,1990.61 1284.69,1990.91"/>
    </edge>
    <edge id=":athlone_27" function="internal">
        <lane id=":athlone_27_0" index="0" speed="7.60" length="26.02" shape="1282.30,1993.03 1275.70,1986.08 1272.82,1984.26 1273.65,1987.59 1278.20,1996.05"/>
    </edge>
    <edge id=":athlone_28" function="internal">
        <lane id=":athlone_28_0" index="0" speed="9.22" length="34.15" shape="1282.30,1993.03 1272.18,1982.75 1265.53,1978.60 1262.35,1980.59 1262.64,1988.72"/>
    </edge>
    <edge id=":athlone_29" function="internal">
        <lane id=":athlone_29_0" index="0" speed="10.00" length="37.87" shape="1282.30,1993.03 1272.06,1983.20 1264.09,1979.33 1258.38,1981.41 1254.94,1989.44"/>
    </edge>
    <edge id=":athlone_30" function="internal">
        <lane id=":athlone_30_0" index="0" speed="10.00" length="46.61" shape="1282.30,1993.03 1276.35,1986.59 1266.15,1975.95 1255.67,1965.77 1248.88,1960.67"/>
    </edge>
    <edge id=":athlone_31" function="internal">
        <lane id=":athlone_31_0" index="0" speed="10.00" length="49.56" shape="1282.30,1993.03 1276.42,1985.95 1266.64,1973.64 1257.28,1961.13 1252.65,1953.40"/>
    </edge>
    <edge id=":athlone_32" function="internal">
        <lane id=":athlone_32_0" index="0" speed="10.00" length="48.37" shape="1282.30,1993.03 1270.31,1978.49 1262.69,1966.79 1259.43,1957.93 1260.54,1951.91"/>
    </edge>
    <edge id=":athlone_33" function="internal">
        <lane id=":athlone_33_0" index="0" speed="10.00" length="42.64" shape="1282.30,1993.03 1277.22,1984.33 1272.23,1971.48 1269.39,1959.45 1270.80,1953.19"/>
    </edge>
    <edge id=":athlone_34" function="internal">
        <lane id=":athlone_34_0" index="0" speed="10.00" length="38.91" shape="1282.30,1993.03 1277.22,1984.76 1272.32,1972.99 1269.81,1962.29 1271.89,1957.24"/>
    </edge>
    <edge id=":athlone_35" function="internal">
        <lane id=":athlone_35_0" index="0" speed="3.65" length="4.67" shape="1282.30,1993.03 1282.10,1991.60 1282.43,1990.77 1283.29,1990.54 1284.69,1990.91"/>
    </edge>
    <edge id=":athlone_36" function="internal">
        <lane id=":athlone_36_0" index="0" speed="7.45" length="24.44" shape="1279.51,1978.83 1274.63,1976.07 1273.87,1977.16 1277.23,1982.11 1284.69,1990.91"/>
    </edge>
    <edge id=":athlone_37" function="internal">
        <lane id=":athlone_37_0" index="0" speed="8.77" length="32.05" shape="1279.51,1978.83 1272.45,1975.19 1269.87,1976.84 1271.79,1983.79 1278.20,1996.05"/>
    </edge>
    <edge id=":athlone_38" function="internal">
        <lane id=":athlone_38_0" index="0" speed="9.33" length="31.31" shape="1279.51,1978.83 1270.48,1974.06 1264.66,1974.12 1262.05,1979.00 1262.64,1988.72"/>
    </edge>
    <edge id=":athlone_39" function="internal">
        <lane id=":athlone_39_0" index="0" speed="10.00" length="38.03" shape="1279.51,1978.83 1269.36,1973.79 1261.35,1973.84 1255.47,1978.97 1251.72,1989.19"/>
    </edge>
    <edge id=":athlone_40" function="internal">
        <lane id=":athlone_40_0" index="0" speed="10.00" length="35.65" shape="1279.51,1978.83 1273.65,1975.00 1264.45,1969.21 1255.11,1963.68 1248.88,1960.67"/>
    </edge>
    <edge id=":athlone_41" function="internal">
        <lane id=":athlone_41_0" index="0" speed="10.00" length="37.16" shape="1279.51,1978.83 1273.72,1974.36 1264.94,1966.90 1256.73,1959.04 1252.65,1953.40"/>
    </edge>
    <edge id=":athlone_42" function="internal">
        <lane id=":athlone_42_0" index="0" speed="10.00" length="35.73" shape="1279.51,1978.83 1268.66,1970.61 1261.88,1963.39 1259.18,1957.15 1260.54,1951.91"/>
    </edge>
    <edge id=":athlone_43" function="internal">
        <lane id=":athlone_43_0" index="0" speed="9.62" length="30.34" shape="1279.51,1978.83 1273.88,1973.20 1269.31,1965.41 1267.66,1957.92 1270.80,1953.19"/>
    </edge>
    <edge id=":athlone_44" function="internal">
        <lane id=":athlone_44_0" index="0" speed="9.03" length="30.15" shape="1279.51,1978.83 1272.10,1972.69 1267.02,1966.00 1266.28,1960.33 1271.89,1957.24"/>
    </edge>
    <edge id=":athlone_45" function="internal">
        <lane id=":athlone_45_0" index="0" speed="8.97" length="32.04" shape="1268.89,1966.39 1266.87,1967.05 1268.83,1971.36 1274.77,1979.31 1284.69,1990.91"/>
    </edge>
    <edge id=":athlone_46" function="internal">
        <lane id=":athlone_46_0" index="0" speed="9.73" length="34.74" shape="1268.89,1966.39 1265.91,1967.22 1266.46,1972.43 1270.56,1982.04 1278.20,1996.05"/>
    </edge>
    <edge id=":athlone_47" function="internal">
        <lane id=":athlone_47_0" index="0" speed="9.47" length="27.45" shape="1268.89,1966.39 1264.43,1966.61 1261.90,1970.41 1261.30,1977.78 1262.64,1988.72"/>
    </edge>
    <edge id=":athlone_48" function="internal">
        <lane id=":athlone_48_0" index="0" speed="10.00" length="31.68" shape="1268.89,1966.39 1263.44,1966.55 1258.76,1970.40 1254.85,1977.95 1251.72,1989.19"/>
    </edge>
    <edge id=":athlone_49" function="internal">
        <lane id=":athlone_49_0" index="0" speed="10.00" length="20.81" shape="1268.89,1966.39 1248.88,1960.67"/>
    </edge>
    <edge id=":athlone_50" function="internal">
        <lane id=":athlone_50_0" index="0" speed="10.00" length="21.77" shape="1268.89,1966.39 1262.53,1964.04 1257.71,1961.09 1254.41,1957.54 1252.65,1953.40"/>
    </edge>
    <edge id=":athlone_51" function="internal">
        <lane id=":athlone_51_0" index="0" speed="8.13" length="18.52" shape="1268.89,1966.39 1264.87,1964.11 1261.49,1960.27 1259.73,1955.87 1260.54,1951.91"/>
    </edge>
    <edge id=":athlone_52" function="internal">
        <lane id=":athlone_52_0" index="0" speed="6.99" length="17.83" shape="1268.89,1966.39 1265.22,1963.86 1264.60,1960.07 1266.61,1956.15 1270.80,1953.19"/>
    </edge>
    <edge id=":athlone_53" function="internal">
        <lane id=":athlone_53_0" index="0" speed="5.43" length="11.22" shape="1268.89,1966.39 1267.61,1964.65 1268.04,1961.64 1269.64,1958.73 1271.89,1957.24"/>
    </edge>
    <edge id=":athlone_54" function="internal">
        <lane id=":athlone_54_0" index="0" speed="6.50" length="18.12" shape="1256.76,1951.92 1253.52,1946.14 1251.75,1944.46 1251.46,1946.88 1252.65,1953.40"/>
    </edge>
    <edge id=":athlone_55" function="internal">
        <lane id=":athlone_55_0" index="0" speed="4.46" length="5.03" shape="1256.76,1951.92 1257.59,1953.07 1258.49,1953.46 1259.48,1953.07 1260.54,1951.91"/>
    </edge>
    <edge id=":athlone_56" function="internal">
        <lane id=":athlone_56_0" index="0" speed="8.59" length="15.48" shape="1256.76,1951.92 1258.75,1954.18 1261.75,1955.15 1265.77,1954.82 1270.80,1953.19"/>
    </edge>
    <edge id=":athlone_57" function="internal">
        <lane id=":athlone_57_0" index="0" speed="10.00" length="17.13" shape="1256.76,1951.92 1259.02,1954.83 1262.30,1956.69 1266.59,1957.50 1271.89,1957.24"/>
    </edge>
    <edge id=":athlone_58" function="internal">
        <lane id=":athlone_58_0" index="0" speed="10.00" length="48.00" shape="1256.76,1951.92 1262.57,1961.24 1271.18,1973.35 1279.56,1984.49 1284.69,1990.91"/>
    </edge>
    <edge id=":athlone_59" function="internal">
        <lane id=":athlone_59_0" index="0" speed="10.00" length="49.51" shape="1253.73,1953.01 1278.20,1996.05"/>
    </edge>
    <edge id=":athlone_60" function="internal">
        <lane id=":athlone_60_0" index="0" speed="10.00" length="36.89" shape="1253.73,1953.01 1256.91,1961.66 1259.55,1972.37 1261.51,1982.32 1262.64,1988.72"/>
    </edge>
    <edge id=":athlone_61" function="internal">
        <lane id=":athlone_61_0" index="0" speed="10.00" length="36.73" shape="1253.73,1953.01 1255.62,1961.05 1255.20,1970.77 1253.54,1980.66 1251.72,1989.19"/>
    </edge>
    <edge id=":athlone_62" function="internal">
        <lane id=":athlone_62_0" index="0" speed="5.66" length="10.33" shape="1253.73,1953.01 1253.96,1955.46 1252.91,1958.15 1251.06,1960.19 1248.88,1960.67"/>
    </edge>
    <edge id=":athlone_63" function="internal">
        <lane id=":athlone_63_0" index="0" speed="5.00" length="6.75" shape="1249.74,1957.59 1251.47,1957.76 1252.52,1957.11 1252.92,1955.66 1252.65,1953.40"/>
    </edge>
    <edge id=":athlone_64" function="internal">
        <lane id=":athlone_64_0" index="0" speed="8.88" length="13.01" shape="1249.74,1957.59 1252.52,1957.82 1255.25,1956.95 1257.92,1954.98 1260.54,1951.91"/>
    </edge>
    <edge id=":athlone_65" function="internal">
        <lane id=":athlone_65_0" index="0" speed="10.00" length="21.72" shape="1249.74,1957.59 1254.41,1957.73 1260.34,1956.61 1266.24,1954.87 1270.80,1953.19"/>
    </edge>
    <edge id=":athlone_66" function="internal">
        <lane id=":athlone_66_0" index="0" speed="10.00" length="22.22" shape="1249.74,1957.59 1254.54,1958.19 1260.76,1958.17 1267.01,1957.77 1271.89,1957.24"/>
    </edge>
    <edge id=":athlone_67" function="internal">
        <lane id=":athlone_67_0" index="0" speed="10.00" length="48.37" shape="1249.74,1957.59 1256.77,1962.83 1267.78,1973.35 1278.51,1984.31 1284.69,1990.91"/>
    </edge>
    <edge id=":athlone_68" function="internal">
        <lane id=":athlone_68_0" index="0" speed="10.00" length="48.00" shape="1249.74,1957.59 1255.87,1963.56 1264.84,1975.70 1273.37,1988.40 1278.20,1996.05"/>
    </edge>
    <edge id=":athlone_69" function="internal">
        <lane id=":athlone_69_0" index="0" speed="10.00" length="34.63" shape="1249.74,1957.59 1253.42,1960.34 1256.79,1966.44 1259.87,1975.91 1262.64,1988.72"/>
    </edge>
    <edge id=":athlone_70" function="internal">
        <lane id=":athlone_70_0" index="0" speed="10.00" length="33.37" shape="1249.74,1957.59 1252.92,1960.41 1254.30,1966.62 1253.91,1976.22 1251.72,1989.19"/>
    </edge>
    <edge id=":athlone_71" function="internal">
        <lane id=":athlone_71_0" index="0" speed="3.65" length="4.67" shape="1249.74,1957.59 1250.68,1958.68 1250.85,1959.56 1250.25,1960.22 1248.88,1960.67"/>
    </edge>
    <edge id=":belfast_0" function="internal">
        <lane id=":belfast_0_0" index="0" speed="6.58" length="18.99" shape="2491.68,3325.91 2493.49,3332.67 2494.71,3334.85 2495.33,3332.43 2495.34,3325.43"/>
    </edge>
    <edge id=":belfast_1" function="internal">
        <lane id=":belfast_1_0" index="0" speed="10.00" length="40.49" shape="2491.68,3325.91 2494.79,3341.43 2495.96,3353.16 2495.22,3361.08 2492.54,3365.20"/>
    </edge>
    <edge id=":belfast_2" function="internal">
        <lane id=":belfast_2_0" index="0" speed="10.00" length="40.41" shape="2491.68,3325.91 2494.78,3341.44 2495.95,3353.14 2495.18,3361.03 2492.48,3365.10"/>
    </edge>
    <edge id=":belfast_3" function="internal">
        <lane id=":belfast_3_0" index="0" speed="8.86" length="30.59" shape="2491.68,3325.91 2489.49,3331.59 2482.23,3335.26 2473.36,3336.20 2466.34,3333.72"/>
    </edge>
    <edge id=":belfast_4" function="internal">
        <lane id=":belfast_4_0" index="0" speed="8.24" length="27.18" shape="2491.68,3325.91 2489.61,3330.75 2482.92,3333.55 2474.90,3333.85 2468.82,3331.19"/>
    </edge>
    <edge id=":belfast_5" function="internal">
        <lane id=":belfast_5_0" index="0" speed="8.66" length="30.60" shape="2491.68,3325.91 2490.60,3333.07 2484.83,3336.25 2476.97,3335.40 2469.62,3330.44"/>
    </edge>
    <edge id=":belfast_6" function="internal">
        <lane id=":belfast_6_0" index="0" speed="7.64" length="25.26" shape="2488.18,3326.77 2491.59,3335.24 2493.92,3337.84 2495.17,3334.57 2495.34,3325.43"/>
    </edge>
    <edge id=":belfast_7" function="internal">
        <lane id=":belfast_7_0" index="0" speed="10.00" length="40.07" shape="2488.18,3326.77 2492.86,3341.89 2495.15,3353.34 2495.04,3361.11 2492.54,3365.20"/>
    </edge>
    <edge id=":belfast_8" function="internal">
        <lane id=":belfast_8_0" index="0" speed="10.00" length="39.99" shape="2488.18,3326.77 2492.86,3341.89 2495.13,3353.32 2495.01,3361.06 2492.48,3365.10"/>
    </edge>
    <edge id=":belfast_9" function="internal">
        <lane id=":belfast_9_0" index="0" speed="8.12" length="26.56" shape="2488.18,3326.77 2486.62,3331.62 2480.33,3334.87 2472.50,3335.80 2466.34,3333.72"/>
    </edge>
    <edge id=":belfast_10" function="internal">
        <lane id=":belfast_10_0" index="0" speed="7.48" length="23.08" shape="2488.18,3326.77 2486.70,3330.78 2481.01,3333.14 2474.06,3333.42 2468.82,3331.19"/>
    </edge>
    <edge id=":belfast_11" function="internal">
        <lane id=":belfast_11_0" index="0" speed="7.28" length="22.00" shape="2488.18,3326.77 2486.74,3330.52 2481.24,3332.61 2474.58,3332.70 2469.62,3330.44"/>
    </edge>
    <edge id=":belfast_12" function="internal">
        <lane id=":belfast_12_0" index="0" speed="7.69" length="25.60" shape="2487.92,3326.86 2491.45,3335.39 2493.86,3337.99 2495.16,3334.67 2495.34,3325.43"/>
    </edge>
    <edge id=":belfast_13" function="internal">
        <lane id=":belfast_13_0" index="0" speed="10.00" length="40.02" shape="2487.92,3326.86 2492.72,3341.94 2495.09,3353.36 2495.03,3361.11 2492.54,3365.20"/>
    </edge>
    <edge id=":belfast_14" function="internal">
        <lane id=":belfast_14_0" index="0" speed="10.00" length="39.95" shape="2487.92,3326.86 2492.71,3341.94 2495.07,3353.34 2495.00,3361.06 2492.48,3365.10"/>
    </edge>
    <edge id=":belfast_15" function="internal">
        <lane id=":belfast_15_0" index="0" speed="8.06" length="26.25" shape="2487.92,3326.86 2486.40,3331.64 2480.18,3334.85 2472.44,3335.78 2466.34,3333.72"/>
    </edge>
    <edge id=":belfast_16" function="internal">
        <lane id=":belfast_16_0" index="0" speed="7.43" length="22.77" shape="2487.92,3326.86 2486.48,3330.80 2480.86,3333.12 2473.99,3333.39 2468.82,3331.19"/>
    </edge>
    <edge id=":belfast_17" function="internal">
        <lane id=":belfast_17_0" index="0" speed="7.23" length="21.69" shape="2487.92,3326.86 2486.52,3330.54 2481.10,3332.59 2474.51,3332.67 2469.62,3330.44"/>
    </edge>
    <edge id=":belfast_18" function="internal">
        <lane id=":belfast_18_0" index="0" speed="7.96" length="25.74" shape="2488.15,3338.97 2491.62,3343.56 2493.97,3342.83 2495.21,3336.79 2495.34,3325.43"/>
    </edge>
    <edge id=":belfast_19" function="internal">
        <lane id=":belfast_19_0" index="0" speed="10.00" length="28.56" shape="2488.15,3338.97 2492.92,3348.71 2495.24,3356.32 2495.12,3361.82 2492.54,3365.20"/>
    </edge>
    <edge id=":belfast_20" function="internal">
        <lane id=":belfast_20_0" index="0" speed="10.00" length="28.49" shape="2488.15,3338.97 2492.92,3348.71 2495.24,3356.31 2495.09,3361.77 2492.48,3365.10"/>
    </edge>
    <edge id=":belfast_21" function="internal">
        <lane id=":belfast_21_0" index="0" speed="8.32" length="30.01" shape="2488.15,3338.97 2488.60,3343.91 2482.99,3343.55 2474.51,3339.59 2466.34,3333.72"/>
    </edge>
    <edge id=":belfast_22" function="internal">
        <lane id=":belfast_22_0" index="0" speed="7.17" length="22.75" shape="2488.15,3338.97 2487.28,3340.86 2481.82,3338.84 2474.88,3334.76 2469.62,3330.44"/>
    </edge>
    <edge id=":belfast_23" function="internal">
        <lane id=":belfast_23_0" index="0" speed="8.24" length="30.43" shape="2488.15,3338.97 2480.40,3344.27 2474.60,3344.74 2470.74,3340.38 2468.82,3331.19"/>
    </edge>
    <edge id=":belfast_24" function="internal">
        <lane id=":belfast_24_0" index="0" speed="10.00" length="40.20" shape="2471.96,3328.26 2482.54,3338.35 2489.96,3341.24 2494.23,3336.93 2495.34,3325.43"/>
    </edge>
    <edge id=":belfast_25" function="internal">
        <lane id=":belfast_25_0" index="0" speed="10.00" length="42.57" shape="2471.96,3328.26 2478.02,3336.62 2485.40,3348.65 2491.21,3359.72 2492.54,3365.20"/>
    </edge>
    <edge id=":belfast_26" function="internal">
        <lane id=":belfast_26_0" index="0" speed="10.00" length="44.43" shape="2471.96,3328.26 2482.67,3340.86 2490.56,3351.78 2494.28,3360.15 2492.48,3365.10"/>
    </edge>
    <edge id=":belfast_27" function="internal">
        <lane id=":belfast_27_0" index="0" speed="5.13" length="11.03" shape="2471.96,3328.26 2472.76,3330.90 2471.45,3333.30 2468.99,3334.55 2466.34,3333.72"/>
    </edge>
    <edge id=":belfast_28" function="internal">
        <lane id=":belfast_28_0" index="0" speed="3.56" length="4.30" shape="2471.96,3328.26 2468.82,3331.19"/>
    </edge>
    <edge id=":belfast_29" function="internal">
        <lane id=":belfast_29_0" index="0" speed="3.65" length="4.67" shape="2471.96,3328.26 2472.20,3329.68 2471.88,3330.52 2471.03,3330.78 2469.62,3330.44"/>
    </edge>
    <edge id=":bray_0" function="internal">
        <lane id=":bray_0_0" index="0" speed="4.05" length="6.03" shape="2445.41,1694.11 2445.30,1691.88 2445.14,1691.13 2444.95,1691.89 2444.71,1694.13"/>
    </edge>
    <edge id=":bray_1" function="internal">
        <lane id=":bray_1_0" index="0" speed="8.25" length="28.83" shape="2445.41,1694.11 2444.45,1684.86 2442.32,1682.07 2439.03,1685.76 2434.58,1695.91"/>
    </edge>
    <edge id=":bray_2" function="internal">
        <lane id=":bray_2_0" index="0" speed="10.00" length="44.00" shape="2445.41,1694.11 2443.72,1685.17 2439.47,1684.98 2432.65,1693.54 2423.27,1710.86"/>
    </edge>
    <edge id=":bray_3" function="internal">
        <lane id=":bray_3_0" index="0" speed="10.00" length="44.43" shape="2445.41,1694.11 2443.67,1685.06 2439.26,1684.76 2432.19,1693.22 2422.45,1710.43"/>
    </edge>
    <edge id=":bray_4" function="internal">
        <lane id=":bray_4_0" index="0" speed="10.00" length="57.73" shape="2445.41,1694.11 2442.34,1683.28 2434.04,1680.58 2420.51,1686.01 2401.74,1699.58"/>
    </edge>
    <edge id=":bray_5" function="internal">
        <lane id=":bray_5_0" index="0" speed="10.00" length="51.57" shape="2445.41,1694.11 2442.65,1682.25 2435.31,1677.01 2423.37,1678.38 2406.85,1686.37"/>
    </edge>
    <edge id=":bray_6" function="internal">
        <lane id=":bray_6_0" index="0" speed="10.00" length="34.21" shape="2445.41,1694.11 2444.45,1680.42 2442.51,1670.73 2439.61,1665.05 2435.73,1663.37"/>
    </edge>
    <edge id=":bray_7" function="internal">
        <lane id=":bray_7_0" index="0" speed="10.00" length="34.53" shape="2445.41,1694.11 2444.44,1680.38 2442.49,1670.62 2439.55,1664.83 2435.63,1663.02"/>
    </edge>
    <edge id=":bray_8" function="internal">
        <lane id=":bray_8_0" index="0" speed="10.00" length="40.78" shape="2445.41,1694.11 2444.24,1679.79 2441.71,1668.86 2437.81,1661.32 2432.55,1657.16"/>
    </edge>
    <edge id=":bray_9" function="internal">
        <lane id=":bray_9_0" index="0" speed="10.00" length="41.14" shape="2445.41,1694.11 2444.26,1679.73 2441.80,1668.66 2438.01,1660.91 2432.91,1656.49"/>
    </edge>
    <edge id=":bray_10" function="internal">
        <lane id=":bray_10_0" index="0" speed="10.00" length="45.27" shape="2445.41,1694.11 2444.55,1685.65 2442.63,1671.58 2440.31,1657.61 2438.24,1649.46"/>
    </edge>
    <edge id=":bray_11" function="internal">
        <lane id=":bray_11_0" index="0" speed="10.00" length="47.87" shape="2444.74,1646.28 2445.20,1655.13 2445.25,1670.18 2445.03,1685.24 2444.71,1694.13"/>
    </edge>
    <edge id=":bray_12" function="internal">
        <lane id=":bray_12_0" index="0" speed="10.00" length="50.73" shape="2444.74,1646.28 2443.81,1655.45 2440.68,1671.18 2437.04,1686.87 2434.58,1695.91"/>
    </edge>
    <edge id=":bray_13" function="internal">