<?xml version="1.0" encoding="UTF-8"?>

<!-- generated on 2025-02-19 13:02:47 by Eclipse SUMO netconvert Version 1.18.0
<configuration xmlns:xsi="http://www.w3.org/2001/XMLSchema-instance" xsi:noNamespaceSchemaLocation="http://sumo.dlr.de/xsd/netconvertConfiguration.xsd">

    <input>
        <node-files value="nod.xml"/>
        <edge-files value="edge_xmls/09810.xml"/>
    </input>

    <output>
        <output-file value="networks/09810.net.xml"/>
    </output>

</configuration>
-->

<net version="1.16" junctionCornerDetail="5" limitTurnSpeed="5.50" xmlns:xsi="http://www.w3.org/2001/XMLSchema-instance" xsi:noNamespaceSchemaLocation="http://sumo.dlr.de/xsd/net_file.xsd">

    <location netOffset="-682.00,4368.00" convBoundary="0.00,0.00,2498.00,3881.00" origBoundary="682.00,-4368.00,3180.00,-487.00" projParameter="!"/>

    <edge id=":antrim_0" function="internal">
        <lane id=":antrim_0_0" index="0" speed="8.89" length="25.45" shape="2288.22,3460.00 2288.35,3471.20 2289.28,3478.69 2291.02,3482.46 2293.57,3482.52"/>
    </edge>
    <edge id=":antrim_1" function="internal">
        <lane id=":antrim_1_0" index="0" speed="10.00" length="34.96" shape="2288.22,3460.00 2287.46,3473.36 2285.80,3483.27 2283.26,3489.74 2279.83,3492.77"/>
    </edge>
    <edge id=":antrim_2" function="internal">
        <lane id=":antrim_2_0" index="0" speed="9.67" length="33.76" shape="2288.22,3460.00 2285.77,3468.87 2279.91,3473.75 2272.24,3474.07 2264.35,3469.23"/>
    </edge>
    <edge id=":antrim_3" function="internal">
        <lane id=":antrim_3_0" index="0" speed="8.38" length="26.21" shape="2288.22,3460.00 2285.44,3465.15 2279.11,3468.63 2271.93,3469.58 2266.58,3467.11"/>
    </edge>
    <edge id=":antrim_4" function="internal">
        <lane id=":antrim_4_0" index="0" speed="6.67" length="17.92" shape="2288.22,3460.00 2286.09,3463.21 2281.36,3464.93 2276.27,3464.81 2273.09,3462.49"/>
    </edge>
    <edge id=":antrim_5" function="internal">
        <lane id=":antrim_5_0" index="0" speed="6.62" length="17.69" shape="2288.22,3460.00 2286.11,3463.16 2281.43,3464.85 2276.41,3464.71 2273.28,3462.41"/>
    </edge>
    <edge id=":antrim_6" function="internal">
        <lane id=":antrim_6_0" index="0" speed="5.52" length="12.47" shape="2288.22,3460.00 2286.65,3462.08 2283.21,3462.96 2279.64,3462.54 2277.65,3460.70"/>
    </edge>
    <edge id=":antrim_7" function="internal">
        <lane id=":antrim_7_0" index="0" speed="4.92" length="9.89" shape="2288.22,3460.00 2287.15,3462.09 2284.84,3462.58 2282.47,3461.61 2281.21,3459.31"/>
    </edge>
    <edge id=":antrim_8" function="internal">
        <lane id=":antrim_8_0" index="0" speed="5.54" length="12.87" shape="2288.22,3460.00 2286.03,3463.30 2283.83,3464.41 2281.62,3463.31 2279.42,3460.01"/>
    </edge>
    <edge id=":antrim_9" function="internal">
        <lane id=":antrim_9_0" index="0" speed="9.67" length="28.35" shape="2284.30,3458.10 2286.01,3470.21 2288.13,3478.31 2290.65,3482.42 2293.57,3482.52"/>
    </edge>
    <edge id=":antrim_10" function="internal">
        <lane id=":antrim_10_0" index="0" speed="10.00" length="36.32" shape="2284.30,3458.10 2285.31,3472.27 2284.90,3482.77 2283.07,3489.60 2279.83,3492.77"/>
    </edge>
    <edge id=":antrim_11" function="internal">
        <lane id=":antrim_11_0" index="0" speed="8.97" length="30.59" shape="2284.30,3458.10 2283.00,3466.43 2278.17,3471.79 2271.41,3473.09 2264.35,3469.23"/>
    </edge>
    <edge id=":antrim_12" function="internal">
        <lane id=":antrim_12_0" index="0" speed="7.69" length="23.04" shape="2284.30,3458.10 2282.41,3463.01 2277.25,3467.02 2271.19,3468.82 2266.58,3467.11"/>
    </edge>
    <edge id=":antrim_13" function="internal">
        <lane id=":antrim_13_0" index="0" speed="5.87" length="14.14" shape="2284.30,3458.10 2282.95,3460.99 2279.44,3463.18 2275.56,3463.93 2273.09,3462.49"/>
    </edge>
    <edge id=":antrim_14" function="internal">
        <lane id=":antrim_14_0" index="0" speed="5.82" length="13.90" shape="2284.30,3458.10 2282.97,3460.94 2279.51,3463.09 2275.70,3463.83 2273.28,3462.41"/>
    </edge>
    <edge id=":antrim_15" function="internal">
        <lane id=":antrim_15_0" index="0" speed="4.61" length="8.43" shape="2284.30,3458.10 2283.45,3459.83 2281.28,3461.16 2278.96,3461.61 2277.65,3460.70"/>
    </edge>
    <edge id=":antrim_16" function="internal">
        <lane id=":antrim_16_0" index="0" speed="4.34" length="7.39" shape="2284.30,3458.10 2283.74,3460.02 2282.16,3461.22 2280.43,3461.33 2279.42,3460.01"/>
    </edge>
    <edge id=":antrim_17" function="internal">
        <lane id=":antrim_17_0" index="0" speed="3.69" length="4.84" shape="2284.30,3458.10 2283.98,3459.56 2283.36,3460.24 2282.44,3460.16 2281.21,3459.31"/>
    </edge>
    <edge id=":antrim_18" function="internal">
        <lane id=":antrim_18_0" index="0" speed="4.34" length="7.18" shape="2276.70,3461.07 2277.73,3463.52 2278.24,3464.27 2278.21,3463.33 2277.65,3460.70"/>
    </edge>
    <edge id=":antrim_19" function="internal">
        <lane id=":antrim_19_0" index="0" speed="2.83" length="1.74" shape="2276.70,3461.07 2276.45,3460.49 2276.31,3460.32 2276.28,3460.56 2276.37,3461.20"/>
    </edge>
    <edge id=":antrim_20" function="internal">
        <lane id=":antrim_20_0" index="0" speed="6.60" length="18.56" shape="2276.70,3461.07 2279.40,3467.09 2281.05,3468.81 2281.66,3466.21 2281.21,3459.31"/>
    </edge>
    <edge id=":antrim_21" function="internal">
        <lane id=":antrim_21_0" index="0" speed="10.00" length="29.35" shape="2276.70,3461.07 2281.54,3472.00 2285.96,3479.22 2289.98,3482.73 2293.57,3482.52"/>
    </edge>
    <edge id=":antrim_22" function="internal">
        <lane id=":antrim_22_0" index="0" speed="10.00" length="32.42" shape="2276.70,3461.07 2279.05,3469.35 2280.79,3479.58 2281.26,3488.49 2279.83,3492.77"/>
    </edge>
    <edge id=":antrim_23" function="internal">
        <lane id=":antrim_23_0" index="0" speed="6.54" length="17.31" shape="2276.70,3461.07 2276.02,3464.78 2272.50,3468.19 2267.99,3470.09 2264.35,3469.23"/>
    </edge>
    <edge id=":antrim_24" function="internal">
        <lane id=":antrim_24_0" index="0" speed="5.82" length="13.84" shape="2276.70,3461.07 2276.07,3463.99 2273.10,3466.62 2269.40,3467.98 2266.58,3467.11"/>
    </edge>
    <edge id=":antrim_25" function="internal">
        <lane id=":antrim_25_0" index="0" speed="3.45" length="3.88" shape="2276.70,3461.07 2273.09,3462.49"/>
    </edge>
    <edge id=":antrim_26" function="internal">
        <lane id=":antrim_26_0" index="0" speed="3.84" length="5.37" shape="2276.70,3461.07 2276.35,3462.69 2275.66,3463.46 2274.64,3463.36 2273.28,3462.41"/>
    </edge>
    <edge id=":antrim_27" function="internal">
        <lane id=":antrim_27_0" index="0" speed="5.04" length="10.37" shape="2276.07,3461.32 2277.65,3464.80 2278.44,3465.85 2278.44,3464.49 2277.65,3460.70"/>
    </edge>
    <edge id=":antrim_28" function="internal">
        <lane id=":antrim_28_0" index="0" speed="2.73" length="1.47" shape="2276.07,3461.32 2276.29,3461.80 2276.42,3461.94 2276.44,3461.74 2276.37,3461.20"/>
    </edge>
    <edge id=":antrim_29" function="internal">
        <lane id=":antrim_29_0" index="0" speed="6.79" length="19.65" shape="2276.07,3461.32 2279.08,3467.59 2280.95,3469.34 2281.66,3466.58 2281.21,3459.31"/>
    </edge>
    <edge id=":antrim_30" function="internal">
        <lane id=":antrim_30_0" index="0" speed="10.00" length="29.52" shape="2276.07,3461.32 2281.17,3472.15 2285.79,3479.29 2289.92,3482.75 2293.57,3482.52"/>
    </edge>
    <edge id=":antrim_31" function="internal">
        <lane id=":antrim_31_0" index="0" speed="10.00" length="33.73" shape="2276.07,3461.32 2280.83,3474.03 2283.05,3483.51 2282.71,3489.75 2279.83,3492.77"/>
    </edge>
    <edge id=":antrim_32" function="internal">
        <lane id=":antrim_32_0" index="0" speed="6.38" length="16.55" shape="2276.07,3461.32 2275.47,3464.86 2272.13,3468.17 2267.83,3470.02 2264.35,3469.23"/>
    </edge>
    <edge id=":antrim_33" function="internal">
        <lane id=":antrim_33_0" index="0" speed="5.65" length="13.06" shape="2276.07,3461.32 2275.52,3464.07 2272.73,3466.58 2269.24,3467.91 2266.58,3467.11"/>
    </edge>
    <edge id=":antrim_34" function="internal">
        <lane id=":antrim_34_0" index="0" speed="3.18" length="2.99" shape="2276.07,3461.32 2273.28,3462.41"/>
    </edge>
    <edge id=":antrim_35" function="internal">
        <lane id=":antrim_35_0" index="0" speed="3.65" length="4.67" shape="2276.07,3461.32 2275.76,3462.73 2275.16,3463.40 2274.27,3463.32 2273.09,3462.49"/>
    </edge>
    <edge id=":antrim_36" function="internal">
        <lane id=":antrim_36_0" index="0" speed="4.52" length="7.97" shape="2272.00,3462.92 2273.61,3465.43 2274.33,3466.20 2274.16,3465.22 2273.09,3462.49"/>
    </edge>
    <edge id=":antrim_37" function="internal">
        <lane id=":antrim_37_0" index="0" speed="4.74" length="8.97" shape="2272.00,3462.92 2273.82,3465.74 2274.64,3466.60 2274.46,3465.49 2273.28,3462.41"/>
    </edge>
    <edge id=":antrim_38" function="internal">
        <lane id=":antrim_38_0" index="0" speed="6.93" length="20.36" shape="2272.00,3462.92 2276.14,3469.01 2278.47,3470.67 2278.97,3467.90 2277.65,3460.70"/>
    </edge>
    <edge id=":antrim_39" function="internal">
        <lane id=":antrim_39_0" index="0" speed="5.82" length="13.39" shape="2272.00,3462.92 2274.71,3466.81 2276.34,3467.82 2276.89,3465.95 2276.37,3461.20"/>
    </edge>
    <edge id=":antrim_40" function="internal">
        <lane id=":antrim_40_0" index="0" speed="7.75" length="24.71" shape="2272.00,3462.92 2276.94,3469.87 2280.13,3471.58 2281.55,3468.06 2281.21,3459.31"/>
    </edge>
    <edge id=":antrim_41" function="internal">
        <lane id=":antrim_41_0" index="0" speed="10.00" length="30.96" shape="2272.00,3462.92 2278.80,3473.10 2284.66,3479.76 2289.59,3482.90 2293.57,3482.52"/>
    </edge>
    <edge id=":antrim_42" function="internal">
        <lane id=":antrim_42_0" index="0" speed="10.00" length="31.56" shape="2272.00,3462.92 2275.69,3470.61 2279.04,3480.22 2280.82,3488.65 2279.83,3492.77"/>
    </edge>
    <edge id=":antrim_43" function="internal">
        <lane id=":antrim_43_0" index="0" speed="5.35" length="11.68" shape="2272.00,3462.92 2271.85,3465.43 2269.69,3468.02 2266.76,3469.64 2264.35,3469.23"/>
    </edge>
    <edge id=":antrim_44" function="internal">
        <lane id=":antrim_44_0" index="0" speed="4.53" length="8.10" shape="2272.00,3462.92 2271.85,3464.65 2270.27,3466.42 2268.20,3467.48 2266.58,3467.11"/>
    </edge>
    <edge id=":antrim_45" function="internal">
        <lane id=":antrim_45_0" index="0" speed="6.58" length="18.44" shape="2268.91,3464.90 2273.32,3469.98 2275.49,3471.27 2275.41,3468.77 2273.09,3462.49"/>
    </edge>
    <edge id=":antrim_46" function="internal">
        <lane id=":antrim_46_0" index="0" speed="6.64" length="18.78" shape="2268.91,3464.90 2273.41,3470.06 2275.63,3471.37 2275.59,3468.82 2273.28,3462.41"/>
    </edge>
    <edge id=":antrim_47" function="internal">
        <lane id=":antrim_47_0" index="0" speed="7.69" length="24.31" shape="2268.91,3464.90 2274.66,3471.19 2278.03,3472.59 2279.03,3469.09 2277.65,3460.70"/>
    </edge>
    <edge id=":antrim_48" function="internal">
        <lane id=":antrim_48_0" index="0" speed="6.90" length="18.68" shape="2268.91,3464.90 2273.25,3469.54 2275.94,3470.47 2276.98,3467.69 2276.37,3461.20"/>
    </edge>
    <edge id=":antrim_49" function="internal">
        <lane id=":antrim_49_0" index="0" speed="8.37" length="27.64" shape="2268.91,3464.90 2275.27,3471.59 2279.44,3472.89 2281.42,3468.80 2281.21,3459.31"/>
    </edge>
    <edge id=":antrim_50" function="internal">
        <lane id=":antrim_50_0" index="0" speed="10.00" length="31.92" shape="2268.91,3464.90 2277.00,3474.25 2283.81,3480.30 2289.33,3483.06 2293.57,3482.52"/>
    </edge>
    <edge id=":antrim_51" function="internal">
        <lane id=":antrim_51_0" index="0" speed="10.00" length="30.75" shape="2268.91,3464.90 2273.50,3472.00 2277.92,3480.95 2280.56,3488.83 2279.83,3492.77"/>
    </edge>
    <edge id=":antrim_52" function="internal">
        <lane id=":antrim_52_0" index="0" speed="4.38" length="7.45" shape="2268.91,3464.90 2268.96,3466.48 2267.67,3468.24 2265.87,3469.42 2264.35,3469.23"/>
    </edge>
    <edge id=":antrim_53" function="internal">
        <lane id=":antrim_53_0" index="0" speed="3.66" length="4.69" shape="2268.91,3464.90 2269.16,3466.33 2268.85,3467.17 2268.00,3467.43 2266.58,3467.11"/>
    </edge>
    <edge id=":antrim_54" function="internal">
        <lane id=":antrim_54_0" index="0" speed="6.57" length="18.37" shape="2268.95,3464.87 2273.33,3469.93 2275.49,3471.23 2275.40,3468.75 2273.09,3462.49"/>
    </edge>
    <edge id=":antrim_55" function="internal">
        <lane id=":antrim_55_0" index="0" speed="6.63" length="18.71" shape="2268.95,3464.87 2273.42,3470.02 2275.63,3471.33 2275.58,3468.79 2273.28,3462.41"/>
    </edge>
    <edge id=":antrim_56" function="internal">
        <lane id=":antrim_56_0" index="0" speed="7.68" length="24.27" shape="2268.95,3464.87 2274.68,3471.16 2278.04,3472.57 2279.03,3469.08 2277.65,3460.70"/>
    </edge>
    <edge id=":antrim_57" function="internal">
        <lane id=":antrim_57_0" index="0" speed="6.89" length="18.63" shape="2268.95,3464.87 2273.27,3469.51 2275.94,3470.44 2276.98,3467.68 2276.37,3461.20"/>
    </edge>
    <edge id=":antrim_58" function="internal">
        <lane id=":antrim_58_0" index="0" speed="8.36" length="27.61" shape="2268.95,3464.87 2275.29,3471.57 2279.45,3472.88 2281.42,3468.79 2281.21,3459.31"/>
    </edge>
    <edge id=":antrim_59" function="internal">
        <lane id=":antrim_59_0" index="0" speed="10.00" length="31.92" shape="2268.95,3464.87 2277.02,3474.23 2283.82,3480.29 2289.34,3483.06 2293.57,3482.52"/>
    </edge>
    <edge id=":antrim_60" function="internal">
        <lane id=":antrim_60_0" index="0" speed="10.00" length="32.84" shape="2268.95,3464.87 2276.04,3474.38 2281.02,3482.78 2282.69,3489.20 2279.83,3492.77"/>
    </edge>
    <edge id=":antrim_61" function="internal">
        <lane id=":antrim_61_0" index="0" speed="4.39" length="7.50" shape="2268.95,3464.87 2268.99,3466.46 2267.70,3468.24 2265.88,3469.42 2264.35,3469.23"/>
    </edge>
    <edge id=":antrim_62" function="internal">
        <lane id=":antrim_62_0" index="0" speed="3.26" length="3.26" shape="2268.95,3464.87 2266.58,3467.11"/>
    </edge>
    <edge id=":antrim_63" function="internal">
        <lane id=":antrim_63_0" index="0" speed="2.58" length="1.14" shape="2266.67,3467.03 2266.37,3466.73 2266.25,3466.64 2266.32,3466.77 2266.58,3467.11"/>
    </edge>
    <edge id=":antrim_64" function="internal">
        <lane id=":antrim_64_0" index="0" speed="7.32" length="22.40" shape="2266.67,3467.03 2272.55,3472.32 2275.57,3473.33 2275.75,3470.05 2273.09,3462.49"/>
    </edge>
    <edge id=":antrim_65" function="internal">
        <lane id=":antrim_65_0" index="0" speed="7.36" length="22.61" shape="2266.67,3467.03 2272.60,3472.36 2275.68,3473.37 2275.90,3470.05 2273.28,3462.41"/>
    </edge>
    <edge id=":antrim_66" function="internal">
        <lane id=":antrim_66_0" index="0" speed="8.20" length="26.70" shape="2266.67,3467.03 2273.52,3472.92 2277.64,3473.82 2279.01,3469.75 2277.65,3460.70"/>
    </edge>
    <edge id=":antrim_67" function="internal">
        <lane id=":antrim_67_0" index="0" speed="8.52" length="28.19" shape="2266.67,3467.03 2273.80,3473.04 2278.30,3473.88 2280.17,3469.53 2279.42,3460.01"/>
    </edge>
    <edge id=":antrim_68" function="internal">
        <lane id=":antrim_68_0" index="0" speed="8.85" length="29.68" shape="2266.67,3467.03 2274.05,3473.13 2278.93,3473.88 2281.32,3469.27 2281.21,3459.31"/>
    </edge>
    <edge id=":antrim_69" function="internal">
        <lane id=":antrim_69_0" index="0" speed="10.00" length="32.48" shape="2266.67,3467.03 2275.69,3475.48 2283.19,3480.87 2289.15,3483.22 2293.57,3482.52"/>
    </edge>
    <edge id=":antrim_70" function="internal">
        <lane id=":antrim_70_0" index="0" speed="9.89" length="29.87" shape="2266.67,3467.03 2271.94,3473.53 2277.16,3481.75 2280.42,3489.04 2279.83,3492.77"/>
    </edge>
    <edge id=":antrim_71" function="internal">
        <lane id=":antrim_71_0" index="0" speed="3.65" length="4.67" shape="2266.67,3467.03 2266.92,3468.45 2266.61,3469.29 2265.75,3469.55 2264.35,3469.23"/>
    </edge>
    <edge id=":antrim_72" function="internal">
        <lane id=":antrim_72_0" index="0" speed="3.87" length="5.29" shape="2266.08,3467.59 2267.52,3468.92 2268.09,3469.29 2267.78,3468.68 2266.58,3467.11"/>
    </edge>
    <edge id=":antrim_73" function="internal">
        <lane id=":antrim_73_0" index="0" speed="7.49" length="23.23" shape="2266.08,3467.59 2272.30,3472.84 2275.54,3473.74 2275.80,3470.29 2273.09,3462.49"/>
    </edge>
    <edge id=":antrim_74" function="internal">
        <lane id=":antrim_74_0" index="0" speed="7.52" length="23.42" shape="2266.08,3467.59 2272.35,3472.87 2275.64,3473.77 2275.95,3470.28 2273.28,3462.41"/>
    </edge>
    <edge id=":antrim_75" function="internal">
        <lane id=":antrim_75_0" index="0" speed="8.33" length="27.30" shape="2266.08,3467.59 2273.22,3473.34 2277.53,3474.11 2279.00,3469.90 2277.65,3460.70"/>
    </edge>
    <edge id=":antrim_76" function="internal">
        <lane id=":antrim_76_0" index="0" speed="8.65" length="28.75" shape="2266.08,3467.59 2273.48,3473.45 2278.17,3474.13 2280.15,3469.66 2279.42,3460.01"/>
    </edge>
    <edge id=":antrim_77" function="internal">
        <lane id=":antrim_77_0" index="0" speed="8.98" length="30.22" shape="2266.08,3467.59 2273.72,3473.52 2278.79,3474.12 2281.29,3469.38 2281.21,3459.31"/>
    </edge>
    <edge id=":antrim_78" function="internal">
        <lane id=":antrim_78_0" index="0" speed="10.00" length="32.68" shape="2266.08,3467.59 2275.35,3475.80 2283.02,3481.02 2289.10,3483.26 2293.57,3482.52"/>
    </edge>
    <edge id=":antrim_79" function="internal">
        <lane id=":antrim_79_0" index="0" speed="9.78" length="29.68" shape="2266.08,3467.59 2271.53,3473.92 2276.95,3481.95 2280.38,3489.10 2279.83,3492.77"/>
    </edge>
    <edge id=":antrim_80" function="internal">
        <lane id=":antrim_80_0" index="0" speed="10.00" length="85.11" shape="2266.08,3467.59 2242.98,3445.55 2234.99,3438.48 2242.11,3446.37 2264.35,3469.23"/>
    </edge>
    <edge id=":antrim_81" function="internal">
        <lane id=":antrim_81_0" index="0" speed="6.49" length="17.62" shape="2265.13,3476.23 2269.80,3478.27 2271.22,3477.78 2269.41,3474.77 2264.35,3469.23"/>
    </edge>
    <edge id=":antrim_82" function="internal">
        <lane id=":antrim_82_0" index="0" speed="7.16" length="21.01" shape="2265.13,3476.23 2270.81,3478.60 2272.95,3477.87 2271.54,3474.04 2266.58,3467.11"/>
    </edge>
    <edge id=":antrim_83" function="internal">
        <lane id=":antrim_83_0" index="0" speed="8.50" length="27.01" shape="2265.13,3476.23 2272.25,3478.85 2275.95,3477.43 2276.23,3471.98 2273.09,3462.49"/>
    </edge>
    <edge id=":antrim_84" function="internal">
        <lane id=":antrim_84_0" index="0" speed="8.53" length="27.12" shape="2265.13,3476.23 2272.28,3478.86 2276.02,3477.43 2276.35,3471.95 2273.28,3462.41"/>
    </edge>
    <edge id=":antrim_85" function="internal">
        <lane id=":antrim_85_0" index="0" speed="9.26" length="29.95" shape="2265.13,3476.23 2272.85,3478.91 2277.51,3477.21 2279.11,3471.14 2277.65,3460.70"/>
    </edge>
    <edge id=":antrim_86" function="internal">
        <lane id=":antrim_86_0" index="0" speed="9.58" length="31.17" shape="2265.13,3476.23 2273.05,3478.91 2278.07,3477.10 2280.20,3470.80 2279.42,3460.01"/>
    </edge>
    <edge id=":antrim_87" function="internal">
        <lane id=":antrim_87_0" index="0" speed="9.92" length="32.46" shape="2265.13,3476.23 2273.25,3478.91 2278.63,3476.98 2281.29,3470.45 2281.21,3459.31"/>
    </edge>
    <edge id=":antrim_88" function="internal">
        <lane id=":antrim_88_0" index="0" speed="10.00" length="30.06" shape="2265.13,3476.23 2274.71,3480.72 2282.65,3483.27 2288.93,3483.87 2293.57,3482.52"/>
    </edge>
    <edge id=":antrim_89" function="internal">
        <lane id=":antrim_89_0" index="0" speed="8.66" length="26.61" shape="2265.13,3476.23 2273.22,3480.82 2279.76,3485.57 2282.66,3489.78 2279.83,3492.77"/>
    </edge>
    <edge id=":antrim_90" function="internal">
        <lane id=":antrim_90_0" index="0" speed="9.27" length="26.12" shape="2278.81,3489.74 2279.50,3487.92 2277.32,3483.89 2272.27,3477.66 2264.35,3469.23"/>
    </edge>
    <edge id=":antrim_91" function="internal">
        <lane id=":antrim_91_0" index="0" speed="9.67" length="26.80" shape="2278.81,3489.74 2279.74,3487.75 2278.01,3483.32 2273.63,3476.44 2266.58,3467.11"/>
    </edge>
    <edge id=":antrim_92" function="internal">
        <lane id=":antrim_92_0" index="0" speed="10.00" length="28.90" shape="2278.81,3489.74 2280.34,3487.40 2279.90,3482.07 2277.48,3473.77 2273.09,3462.49"/>
    </edge>
    <edge id=":antrim_93" function="internal">
        <lane id=":antrim_93_0" index="0" speed="10.00" length="28.93" shape="2278.81,3489.74 2280.36,3487.39 2279.96,3482.05 2277.60,3473.73 2273.28,3462.41"/>
    </edge>
    <edge id=":antrim_94" function="internal">
        <lane id=":antrim_94_0" index="0" speed="10.00" length="30.02" shape="2278.81,3489.74 2280.72,3487.25 2281.17,3481.58 2280.14,3472.73 2277.65,3460.70"/>
    </edge>
    <edge id=":antrim_95" function="internal">
        <lane id=":antrim_95_0" index="0" speed="10.00" length="30.65" shape="2278.81,3489.74 2280.86,3487.20 2281.65,3481.40 2281.17,3472.33 2279.42,3460.01"/>
    </edge>
    <edge id=":antrim_96" function="internal">
        <lane id=":antrim_96_0" index="0" speed="10.00" length="31.39" shape="2278.81,3489.74 2281.01,3487.14 2282.14,3481.21 2282.21,3471.93 2281.21,3459.31"/>
    </edge>
    <edge id=":antrim_97" function="internal">
        <lane id=":antrim_97_0" index="0" speed="10.00" length="16.47" shape="2278.81,3489.74 2282.51,3488.30 2286.36,3486.50 2290.13,3484.52 2293.57,3482.52"/>
    </edge>
    <edge id=":antrim_98" function="internal">
        <lane id=":antrim_98_0" index="0" speed="3.65" length="4.67" shape="2278.81,3489.74 2280.20,3490.11 2280.83,3490.74 2280.71,3491.63 2279.83,3492.77"/>
    </edge>
    <edge id=":athlone_0" function="internal">
        <lane id=":athlone_0_0" index="0" speed="10.00" length="22.52" shape="1258.28,1976.56 1256.86,1971.82 1254.68,1965.84 1252.12,1960.05 1249.56,1955.90"/>
    </edge>
    <edge id=":athlone_1" function="internal">
        <lane id=":athlone_1_0" index="0" speed="10.00" length="23.01" shape="1258.28,1976.56 1252.83,1954.20"/>
    </edge>
    <edge id=":athlone_2" function="internal">
        <lane id=":athlone_2_0" index="0" speed="10.00" length="36.46" shape="1258.28,1976.56 1258.09,1969.52 1258.98,1958.41 1260.43,1947.33 1261.89,1940.38"/>
    </edge>
    <edge id=":athlone_3" function="internal">
        <lane id=":athlone_3_0" index="0" speed="10.00" length="28.55" shape="1258.28,1976.56 1257.04,1968.89 1257.32,1961.78 1259.13,1955.23 1262.47,1949.23"/>
    </edge>
    <edge id=":athlone_4" function="internal">
        <lane id=":athlone_4_0" index="0" speed="10.00" length="31.91" shape="1258.28,1976.56 1257.48,1968.76 1259.17,1961.58 1263.36,1955.04 1270.04,1949.12"/>
    </edge>
    <edge id=":athlone_5" function="internal">
        <lane id=":athlone_5_0" index="0" speed="10.00" length="58.44" shape="1258.28,1976.56 1259.35,1968.15 1266.74,1959.42 1280.44,1950.37 1300.46,1941.00"/>
    </edge>
    <edge id=":athlone_6" function="internal">
        <lane id=":athlone_6_0" index="0" speed="10.00" length="57.13" shape="1258.28,1976.56 1259.48,1968.48 1267.31,1960.94 1281.77,1953.97 1302.85,1947.54"/>
    </edge>
    <edge id=":athlone_7" function="internal">
        <lane id=":athlone_7_0" index="0" speed="10.00" length="47.80" shape="1258.28,1976.56 1258.98,1969.79 1266.15,1974.78 1276.50,1986.41 1286.76,1999.58"/>
    </edge>
    <edge id=":athlone_8" function="internal">
        <lane id=":athlone_8_0" index="0" speed="10.00" length="57.19" shape="1279.48,2004.63 1274.20,1995.73 1264.79,1980.07 1255.25,1964.51 1249.56,1955.90"/>
    </edge>
    <edge id=":athlone_9" function="internal">
        <lane id=":athlone_9_0" index="0" speed="10.00" length="57.06" shape="1279.48,2004.63 1274.41,1995.61 1265.63,1979.62 1257.11,1963.53 1252.83,1954.20"/>
    </edge>
    <edge id=":athlone_10" function="internal">
        <lane id=":athlone_10_0" index="0" speed="10.00" length="68.30" shape="1279.48,2004.63 1268.92,1984.31 1262.46,1966.83 1260.12,1952.19 1261.89,1940.38"/>
    </edge>
    <edge id=":athlone_11" function="internal">
        <lane id=":athlone_11_0" index="0" speed="10.00" length="59.73" shape="1279.48,2004.63 1268.90,1984.77 1262.54,1968.92 1260.39,1957.07 1262.47,1949.23"/>
    </edge>
    <edge id=":athlone_12" function="internal">
        <lane id=":athlone_12_0" index="0" speed="10.00" length="60.45" shape="1279.48,2004.63 1269.29,1984.63 1264.32,1968.71 1264.57,1956.87 1270.04,1949.12"/>
    </edge>
    <edge id=":athlone_13" function="internal">
        <lane id=":athlone_13_0" index="0" speed="10.00" length="80.86" shape="1279.48,2004.63 1270.03,1983.10 1270.05,1966.05 1280.03,1952.39 1300.46,1941.00"/>
    </edge>
    <edge id=":athlone_14" function="internal">
        <lane id=":athlone_14_0" index="0" speed="10.00" length="76.08" shape="1279.48,2004.63 1271.20,1984.38 1272.25,1968.11 1282.76,1955.83 1302.85,1947.54"/>
    </edge>
    <edge id=":athlone_15" function="internal">
        <lane id=":athlone_15_0" index="0" speed="5.40" length="12.47" shape="1279.48,2004.63 1279.16,2001.49 1281.09,1999.03 1284.04,1998.11 1286.76,1999.58"/>
    </edge>
    <edge id=":athlone_16" function="internal">
        <lane id=":athlone_16_0" index="0" speed="10.00" length="57.21" shape="1281.33,2003.47 1275.68,1994.79 1265.65,1979.53 1255.51,1964.35 1249.56,1955.90"/>
    </edge>
    <edge id=":athlone_17" function="internal">
        <lane id=":athlone_17_0" index="0" speed="10.00" length="56.94" shape="1281.33,2003.47 1275.89,1994.68 1266.48,1979.09 1257.37,1963.37 1252.83,1954.20"/>
    </edge>
    <edge id=":athlone_18" function="internal">
        <lane id=":athlone_18_0" index="0" speed="10.00" length="67.88" shape="1281.33,2003.47 1269.95,1983.67 1262.92,1966.56 1260.23,1952.13 1261.89,1940.38"/>
    </edge>
    <edge id=":athlone_19" function="internal">
        <lane id=":athlone_19_0" index="0" speed="10.00" length="59.34" shape="1281.33,2003.47 1269.93,1984.13 1262.98,1968.65 1260.50,1957.01 1262.47,1949.23"/>
    </edge>
    <edge id=":athlone_20" function="internal">
        <lane id=":athlone_20_0" index="0" speed="10.00" length="59.90" shape="1281.33,2003.47 1270.31,1983.99 1264.76,1968.43 1264.67,1956.81 1270.04,1949.12"/>
    </edge>
    <edge id=":athlone_21" function="internal">
        <lane id=":athlone_21_0" index="0" speed="10.00" length="79.38" shape="1281.33,2003.47 1271.33,1982.76 1270.96,1965.95 1280.55,1952.29 1300.46,1941.00"/>
    </edge>
    <edge id=":athlone_22" function="internal">
        <lane id=":athlone_22_0" index="0" speed="10.00" length="74.39" shape="1281.33,2003.47 1272.57,1984.05 1273.25,1968.04 1283.34,1955.77 1302.85,1947.54"/>
    </edge>
    <edge id=":athlone_23" function="internal">
        <lane id=":athlone_23_0" index="0" speed="4.78" length="9.42" shape="1281.33,2003.47 1281.02,2001.12 1282.46,1999.24 1284.70,1998.50 1286.76,1999.58"/>
    </edge>
    <edge id=":athlone_24" function="internal">
        <lane id=":athlone_24_0" index="0" speed="10.00" length="57.26" shape="1284.20,2001.50 1249.56,1955.90"/>
    </edge>
    <edge id=":athlone_25" function="internal">
        <lane id=":athlone_25_0" index="0" speed="10.00" length="56.79" shape="1284.20,2001.50 1278.19,1993.10 1267.81,1978.18 1257.78,1963.09 1252.83,1954.20"/>
    </edge>
    <edge id=":athlone_26" function="internal">
        <lane id=":athlone_26_0" index="0" speed="10.00" length="67.22" shape="1284.20,2001.50 1271.55,1982.59 1263.62,1966.10 1260.40,1952.03 1261.89,1940.38"/>
    </edge>
    <edge id=":athlone_27" function="internal">
        <lane id=":athlone_27_0" index="0" speed="10.00" length="58.76" shape="1284.20,2001.50 1271.52,1983.05 1263.68,1968.19 1260.66,1956.92 1262.47,1949.23"/>
    </edge>
    <edge id=":athlone_28" function="internal">
        <lane id=":athlone_28_0" index="0" speed="10.00" length="59.06" shape="1284.20,2001.50 1271.89,1982.90 1265.43,1967.97 1264.81,1956.71 1270.04,1949.12"/>
    </edge>
    <edge id=":athlone_29" function="internal">
        <lane id=":athlone_29_0" index="0" speed="10.00" length="64.06" shape="1284.20,2001.50 1283.34,1989.51 1287.25,1969.85 1293.70,1950.88 1300.46,1941.00"/>
    </edge>
    <edge id=":athlone_30" function="internal">
        <lane id=":athlone_30_0" index="0" speed="10.00" length="71.60" shape="1284.20,2001.50 1274.79,1983.43 1274.88,1967.89 1284.30,1955.66 1302.85,1947.54"/>
    </edge>
    <edge id=":athlone_31" function="internal">
        <lane id=":athlone_31_0" index="0" speed="3.65" length="4.67" shape="1284.20,2001.50 1284.12,2000.06 1284.53,1999.26 1285.41,1999.10 1286.76,1999.58"/>
    </edge>
    <edge id=":athlone_32" function="internal">
        <lane id=":athlone_32_0" index="0" speed="7.76" length="25.82" shape="1279.89,1982.95 1276.14,1981.17 1276.04,1983.34 1279.58,1989.48 1286.76,1999.58"/>
    </edge>
    <edge id=":athlone_33" function="internal">
        <lane id=":athlone_33_0" index="0" speed="10.00" length="40.68" shape="1279.89,1982.95 1272.11,1976.90 1262.83,1968.75 1254.50,1960.95 1249.56,1955.90"/>
    </edge>
    <edge id=":athlone_34" function="internal">
        <lane id=":athlone_34_0" index="0" speed="10.00" length="39.72" shape="1279.89,1982.95 1272.32,1976.78 1263.66,1968.31 1256.36,1959.97 1252.83,1954.20"/>
    </edge>