<?xml version="1.0" encoding="UTF-8"?>

<!-- generated on 2025-02-19 13:03:29 by Eclipse SUMO netconvert Version 1.18.0
<configuration xmlns:xsi="http://www.w3.org/2001/XMLSchema-instance" xsi:noNamespaceSchemaLocation="http://sumo.dlr.de/xsd/netconvertConfiguration.xsd">

    <input>
        <node-files value="nod.xml"/>
        <edge-files value="edge_xmls/09900.xml"/>
    </input>

    <output>
        <output-file value="networks/09900.net.xml"/>
    </output>

</configuration>
-->

<net version="1.16" junctionCornerDetail="5" limitTurnSpeed="5.50" xmlns:xsi="http://www.w3.org/2001/XMLSchema-instance" xsi:noNamespaceSchemaLocation="http://sumo.dlr.de/xsd/net_file.xsd">

    <location netOffset="-682.00,4368.00" convBoundary="0.00,0.00,2498.00,3881.00" origBoundary="682.00,-4368.00,3180.00,-487.00" projParameter="!"/>

    <edge id=":antrim_0" function="internal">
        <lane id=":antrim_0_0" index="0" speed="10.00" length="44.92" shape="2293.76,3455.42 2289.66,3467.02 2281.38,3473.15 2271.21,3472.98 2261.46,3465.72"/>
    </edge>
    <edge id=":antrim_1" function="internal">
        <lane id=":antrim_1_0" index="0" speed="9.67" length="36.42" shape="2293.76,3455.42 2290.17,3464.49 2282.98,3468.85 2274.57,3467.99 2267.32,3461.39"/>
    </edge>
    <edge id=":antrim_2" function="internal">
        <lane id=":antrim_2_0" index="0" speed="8.05" length="26.30" shape="2293.76,3455.42 2290.39,3460.03 2283.41,3462.33 2276.00,3461.92 2271.36,3458.40"/>
    </edge>
    <edge id=":antrim_3" function="internal">
        <lane id=":antrim_3_0" index="0" speed="7.36" length="21.86" shape="2290.57,3455.15 2287.76,3459.02 2281.95,3461.05 2275.81,3460.81 2272.02,3457.92"/>
    </edge>
    <edge id=":antrim_4" function="internal">
        <lane id=":antrim_4_0" index="0" speed="6.26" length="16.69" shape="2290.57,3455.15 2288.63,3458.53 2284.84,3458.99 2280.97,3456.98 2278.78,3452.91"/>
    </edge>
    <edge id=":antrim_5" function="internal">
        <lane id=":antrim_5_0" index="0" speed="5.91" length="14.93" shape="2290.57,3455.15 2288.85,3457.95 2285.53,3457.88 2282.18,3455.59 2280.40,3451.71"/>
    </edge>
    <edge id=":antrim_6" function="internal">
        <lane id=":antrim_6_0" index="0" speed="5.39" length="12.46" shape="2290.57,3455.15 2289.32,3457.06 2286.98,3456.00 2284.70,3453.05 2283.64,3449.32"/>
    </edge>
    <edge id=":antrim_7" function="internal">
        <lane id=":antrim_7_0" index="0" speed="5.67" length="13.82" shape="2290.57,3455.15 2286.68,3456.90 2284.05,3456.65 2282.67,3454.39 2282.54,3450.13"/>
    </edge>
    <edge id=":antrim_8" function="internal">
        <lane id=":antrim_8_0" index="0" speed="10.00" length="41.14" shape="2286.82,3448.35 2284.49,3460.15 2278.24,3468.46 2269.94,3471.06 2261.46,3465.72"/>
    </edge>
    <edge id=":antrim_9" function="internal">
        <lane id=":antrim_9_0" index="0" speed="8.87" length="31.76" shape="2286.82,3448.35 2284.83,3457.45 2279.71,3463.93 2273.26,3465.88 2267.32,3461.39"/>
    </edge>
    <edge id=":antrim_10" function="internal">
        <lane id=":antrim_10_0" index="0" speed="7.18" length="21.44" shape="2286.82,3448.35 2284.79,3453.31 2280.03,3457.80 2274.80,3460.08 2271.36,3458.40"/>
    </edge>
    <edge id=":antrim_11" function="internal">
        <lane id=":antrim_11_0" index="0" speed="7.01" length="20.51" shape="2286.82,3448.35 2284.86,3453.09 2280.27,3457.39 2275.25,3459.55 2272.02,3457.92"/>
    </edge>
    <edge id=":antrim_12" function="internal">
        <lane id=":antrim_12_0" index="0" speed="5.49" length="12.87" shape="2286.82,3448.35 2285.72,3451.94 2283.13,3454.46 2280.38,3455.06 2278.78,3452.91"/>
    </edge>
    <edge id=":antrim_13" function="internal">
        <lane id=":antrim_13_0" index="0" speed="4.93" length="10.12" shape="2286.82,3448.35 2285.91,3451.14 2283.80,3453.04 2281.60,3453.44 2280.40,3451.71"/>
    </edge>
    <edge id=":antrim_14" function="internal">
        <lane id=":antrim_14_0" index="0" speed="3.65" length="4.63" shape="2286.82,3448.35 2282.54,3450.13"/>
    </edge>
    <edge id=":antrim_15" function="internal">
        <lane id=":antrim_15_0" index="0" speed="3.70" length="4.86" shape="2286.82,3448.35 2286.39,3449.78 2285.71,3450.42 2284.80,3450.27 2283.64,3449.32"/>
    </edge>
    <edge id=":antrim_16" function="internal">
        <lane id=":antrim_16_0" index="0" speed="3.24" length="3.09" shape="2283.38,3449.51 2283.52,3450.61 2283.61,3450.95 2283.65,3450.51 2283.64,3449.32"/>
    </edge>
    <edge id=":antrim_17" function="internal">
        <lane id=":antrim_17_0" index="0" speed="8.39" length="27.82" shape="2283.38,3449.51 2281.42,3455.99 2275.90,3462.01 2269.28,3465.36 2264.04,3463.82"/>
    </edge>
    <edge id=":antrim_18" function="internal">
        <lane id=":antrim_18_0" index="0" speed="7.53" length="23.21" shape="2283.38,3449.51 2281.66,3454.96 2276.92,3460.06 2271.39,3462.86 2267.32,3461.39"/>
    </edge>
    <edge id=":antrim_19" function="internal">
        <lane id=":antrim_19_0" index="0" speed="6.44" length="17.44" shape="2283.38,3449.51 2282.00,3453.63 2278.30,3457.53 2274.13,3459.64 2271.36,3458.40"/>
    </edge>
    <edge id=":antrim_20" function="internal">
        <lane id=":antrim_20_0" index="0" speed="6.26" length="16.50" shape="2283.38,3449.51 2282.06,3453.41 2278.54,3457.11 2274.59,3459.11 2272.02,3457.92"/>
    </edge>
    <edge id=":antrim_21" function="internal">
        <lane id=":antrim_21_0" index="0" speed="3.94" length="5.73" shape="2283.38,3449.51 2278.78,3452.91"/>
    </edge>
    <edge id=":antrim_22" function="internal">
        <lane id=":antrim_22_0" index="0" speed="5.81" length="15.06" shape="2283.38,3449.51 2282.74,3444.04 2282.39,3442.33 2282.32,3444.35 2282.54,3450.13"/>
    </edge>
    <edge id=":antrim_23" function="internal">
        <lane id=":antrim_23_0" index="0" speed="3.84" length="5.42" shape="2283.38,3449.51 2283.46,3451.18 2282.99,3452.10 2281.97,3452.28 2280.40,3451.71"/>
    </edge>
    <edge id=":antrim_24" function="internal">
        <lane id=":antrim_24_0" index="0" speed="4.59" length="8.42" shape="2281.72,3450.74 2282.23,3453.70 2282.54,3454.59 2282.65,3453.40 2282.54,3450.13"/>
    </edge>
    <edge id=":antrim_25" function="internal">
        <lane id=":antrim_25_0" index="0" speed="5.93" length="15.38" shape="2281.72,3450.74 2282.67,3456.06 2283.31,3457.60 2283.63,3455.35 2283.64,3449.32"/>
    </edge>
    <edge id=":antrim_26" function="internal">
        <lane id=":antrim_26_0" index="0" speed="8.60" length="29.86" shape="2281.72,3450.74 2280.81,3459.22 2276.42,3465.40 2270.26,3467.51 2264.04,3463.82"/>
    </edge>
    <edge id=":antrim_27" function="internal">
        <lane id=":antrim_27_0" index="0" speed="7.11" length="20.86" shape="2281.72,3450.74 2280.29,3455.61 2276.03,3460.19 2271.01,3462.70 2267.32,3461.39"/>
    </edge>
    <edge id=":antrim_28" function="internal">
        <lane id=":antrim_28_0" index="0" speed="5.99" length="15.06" shape="2281.72,3450.74 2280.61,3454.28 2277.41,3457.64 2273.78,3459.47 2271.36,3458.40"/>
    </edge>
    <edge id=":antrim_29" function="internal">
        <lane id=":antrim_29_0" index="0" speed="5.80" length="14.12" shape="2281.72,3450.74 2280.67,3454.06 2277.65,3457.22 2274.24,3458.93 2272.02,3457.92"/>
    </edge>
    <edge id=":antrim_30" function="internal">
        <lane id=":antrim_30_0" index="0" speed="8.03" length="30.93" shape="2281.72,3450.74 2279.89,3439.49 2279.07,3435.91 2279.23,3439.98 2280.40,3451.71"/>
    </edge>
    <edge id=":antrim_31" function="internal">
        <lane id=":antrim_31_0" index="0" speed="3.82" length="5.34" shape="2281.72,3450.74 2281.80,3452.38 2281.34,3453.30 2280.33,3453.47 2278.78,3452.91"/>
    </edge>
    <edge id=":antrim_32" function="internal">
        <lane id=":antrim_32_0" index="0" speed="9.53" length="43.98" shape="2281.84,3450.64 2277.93,3435.09 2276.12,3430.28 2276.40,3436.23 2278.78,3452.91"/>
    </edge>
    <edge id=":antrim_33" function="internal">
        <lane id=":antrim_33_0" index="0" speed="9.11" length="39.34" shape="2281.84,3450.64 2278.30,3437.07 2276.38,3433.09 2276.09,3438.71 2277.42,3453.92"/>
    </edge>
    <edge id=":antrim_34" function="internal">
        <lane id=":antrim_34_0" index="0" speed="3.61" length="4.21" shape="2281.84,3450.64 2282.23,3452.05 2282.47,3452.43 2282.58,3451.79 2282.54,3450.13"/>
    </edge>
    <edge id=":antrim_35" function="internal">
        <lane id=":antrim_35_0" index="0" speed="4.87" length="9.37" shape="2281.84,3450.64 2282.70,3453.70 2283.28,3454.49 2283.60,3453.03 2283.64,3449.32"/>
    </edge>
    <edge id=":antrim_36" function="internal">
        <lane id=":antrim_36_0" index="0" speed="7.87" length="25.56" shape="2279.05,3452.71 2278.61,3459.85 2274.85,3465.10 2269.43,3466.93 2264.04,3463.82"/>
    </edge>
    <edge id=":antrim_37" function="internal">
        <lane id=":antrim_37_0" index="0" speed="6.90" length="20.16" shape="2279.05,3452.71 2278.59,3458.37 2275.46,3462.60 2271.19,3464.06 2267.32,3461.39"/>
    </edge>
    <edge id=":antrim_38" function="internal">
        <lane id=":antrim_38_0" index="0" speed="5.00" length="10.27" shape="2279.05,3452.71 2278.38,3455.11 2276.18,3457.40 2273.66,3458.65 2272.02,3457.92"/>
    </edge>
    <edge id=":antrim_39" function="internal">
        <lane id=":antrim_39_0" index="0" speed="5.72" length="13.96" shape="2279.05,3452.71 2279.26,3457.02 2278.05,3459.40 2275.41,3459.86 2271.36,3458.40"/>
    </edge>
    <edge id=":antrim_40" function="internal">
        <lane id=":antrim_40_0" index="0" speed="7.07" length="22.02" shape="2274.68,3455.95 2277.76,3462.92 2279.47,3464.74 2279.81,3461.40 2278.78,3452.91"/>
    </edge>
    <edge id=":antrim_41" function="internal">
        <lane id=":antrim_41_0" index="0" speed="5.48" length="12.17" shape="2274.68,3455.95 2276.37,3459.68 2277.39,3460.58 2277.74,3458.66 2277.42,3453.92"/>
    </edge>
    <edge id=":antrim_42" function="internal">
        <lane id=":antrim_42_0" index="0" speed="8.16" length="28.82" shape="2274.68,3455.95 2278.64,3464.39 2281.28,3466.23 2282.58,3461.48 2282.54,3450.13"/>
    </edge>
    <edge id=":antrim_43" function="internal">
        <lane id=":antrim_43_0" index="0" speed="8.40" length="30.32" shape="2274.68,3455.95 2278.82,3464.61 2281.69,3466.39 2283.30,3461.29 2283.64,3449.32"/>
    </edge>
    <edge id=":antrim_44" function="internal">
        <lane id=":antrim_44_0" index="0" speed="6.59" length="18.37" shape="2274.68,3455.95 2274.80,3460.87 2272.08,3464.61 2268.00,3465.98 2264.04,3463.82"/>
    </edge>
    <edge id=":antrim_45" function="internal">
        <lane id=":antrim_45_0" index="0" speed="5.51" length="12.81" shape="2274.68,3455.95 2274.69,3459.40 2272.69,3462.07 2269.85,3463.03 2267.32,3461.39"/>
    </edge>
    <edge id=":antrim_46" function="internal">
        <lane id=":antrim_46_0" index="0" speed="3.51" length="4.13" shape="2274.68,3455.95 2271.36,3458.40"/>
    </edge>
    <edge id=":antrim_47" function="internal">
        <lane id=":antrim_47_0" index="0" speed="3.69" length="4.84" shape="2274.68,3455.95 2274.75,3457.44 2274.33,3458.26 2273.42,3458.42 2272.02,3457.92"/>
    </edge>
    <edge id=":antrim_48" function="internal">
        <lane id=":antrim_48_0" index="0" speed="3.07" length="2.55" shape="2267.11,3461.54 2267.70,3462.29 2267.93,3462.51 2267.80,3462.21 2267.32,3461.39"/>
    </edge>
    <edge id=":antrim_49" function="internal">
        <lane id=":antrim_49_0" index="0" speed="7.05" length="21.62" shape="2267.11,3461.54 2272.06,3467.51 2274.42,3468.97 2274.19,3465.93 2271.36,3458.40"/>
    </edge>
    <edge id=":antrim_50" function="internal">
        <lane id=":antrim_50_0" index="0" speed="7.27" length="22.95" shape="2267.11,3461.54 2272.35,3467.80 2274.91,3469.28 2274.80,3465.98 2272.02,3457.92"/>
    </edge>
    <edge id=":antrim_51" function="internal">
        <lane id=":antrim_51_0" index="0" speed="8.85" length="32.02" shape="2267.11,3461.54 2273.97,3469.05 2278.20,3470.12 2279.80,3464.74 2278.78,3452.91"/>
    </edge>
    <edge id=":antrim_52" function="internal">
        <lane id=":antrim_52_0" index="0" speed="8.13" length="26.19" shape="2267.11,3461.54 2272.61,3467.44 2276.16,3468.14 2277.76,3463.63 2277.42,3453.92"/>
    </edge>
    <edge id=":antrim_53" function="internal">
        <lane id=":antrim_53_0" index="0" speed="9.56" length="36.01" shape="2267.11,3461.54 2274.47,3469.23 2279.49,3469.89 2282.18,3463.52 2282.54,3450.13"/>
    </edge>
    <edge id=":antrim_54" function="internal">
        <lane id=":antrim_54_0" index="0" speed="9.76" length="37.16" shape="2267.11,3461.54 2274.59,3469.25 2279.84,3469.78 2282.86,3463.14 2283.64,3449.32"/>
    </edge>
    <edge id=":antrim_55" function="internal">
        <lane id=":antrim_55_0" index="0" speed="3.43" length="3.82" shape="2267.11,3461.54 2264.04,3463.82"/>
    </edge>
    <edge id=":antrim_56" function="internal">
        <lane id=":antrim_56_0" index="0" speed="6.41" length="18.40" shape="2269.14,3460.04 2264.78,3454.77 2263.02,3453.24 2263.87,3455.45 2267.32,3461.39"/>
    </edge>
    <edge id=":antrim_57" function="internal">
        <lane id=":antrim_57_0" index="0" speed="5.15" length="10.51" shape="2269.14,3460.04 2271.61,3462.87 2272.80,3463.54 2272.72,3462.05 2271.36,3458.40"/>
    </edge>
    <edge id=":antrim_58" function="internal">
        <lane id=":antrim_58_0" index="0" speed="5.59" length="12.61" shape="2269.14,3460.04 2272.09,3463.39 2273.55,3464.16 2273.53,3462.33 2272.02,3457.92"/>
    </edge>
    <edge id=":antrim_59" function="internal">
        <lane id=":antrim_59_0" index="0" speed="8.01" length="25.67" shape="2269.14,3460.04 2274.75,3465.90 2278.23,3466.67 2279.57,3462.34 2278.78,3452.91"/>
    </edge>
    <edge id=":antrim_60" function="internal">
        <lane id=":antrim_60_0" index="0" speed="8.26" length="26.87" shape="2266.57,3461.94 2272.32,3467.84 2276.05,3468.46 2277.75,3463.82 2277.42,3453.92"/>
    </edge>
    <edge id=":antrim_61" function="internal">
        <lane id=":antrim_61_0" index="0" speed="9.66" length="36.48" shape="2266.57,3461.94 2274.17,3469.52 2279.36,3470.08 2282.15,3463.61 2282.54,3450.13"/>
    </edge>
    <edge id=":antrim_62" function="internal">
        <lane id=":antrim_62_0" index="0" speed="9.86" length="37.62" shape="2266.57,3461.94 2274.29,3469.54 2279.71,3469.96 2282.82,3463.22 2283.64,3449.32"/>
    </edge>
    <edge id=":antrim_63" function="internal">
        <lane id=":antrim_63_0" index="0" speed="3.63" length="4.60" shape="2266.57,3461.94 2266.64,3463.36 2266.24,3464.15 2265.37,3464.30 2264.04,3463.82"/>
    </edge>
    <edge id=":antrim_64" function="internal">
        <lane id=":antrim_64_0" index="0" speed="6.34" length="15.22" shape="2262.33,3474.92 2265.71,3475.64 2266.69,3474.35 2265.27,3471.04 2261.46,3465.72"/>
    </edge>
    <edge id=":antrim_65" function="internal">
        <lane id=":antrim_65_0" index="0" speed="8.14" length="24.93" shape="2262.33,3474.92 2269.08,3476.51 2272.17,3474.78 2271.58,3469.74 2267.32,3461.39"/>
    </edge>
    <edge id=":antrim_66" function="internal">
        <lane id=":antrim_66_0" index="0" speed="9.03" length="29.01" shape="2262.33,3474.92 2270.03,3476.59 2274.10,3474.39 2274.55,3468.32 2271.36,3458.40"/>
    </edge>
    <edge id=":antrim_67" function="internal">
        <lane id=":antrim_67_0" index="0" speed="9.17" length="29.66" shape="2262.33,3474.92 2270.16,3476.59 2274.39,3474.31 2275.00,3468.09 2272.02,3457.92"/>
    </edge>
    <edge id=":antrim_68" function="internal">
        <lane id=":antrim_68_0" index="0" speed="10.00" length="36.51" shape="2262.33,3474.92 2271.27,3476.54 2276.99,3473.41 2279.50,3465.53 2278.78,3452.91"/>
    </edge>
    <edge id=":antrim_69" function="internal">
        <lane id=":antrim_69_0" index="0" speed="10.00" length="41.95" shape="2261.20,3477.91 2271.00,3479.53 2277.47,3475.70 2280.60,3466.43 2280.40,3451.71"/>
    </edge>
    <edge id=":antrim_70" function="internal">
        <lane id=":antrim_70_0" index="0" speed="10.00" length="44.06" shape="2261.20,3477.91 2271.19,3479.45 2278.08,3475.33 2281.86,3465.56 2282.54,3450.13"/>
    </edge>
    <edge id=":antrim_71" function="internal">
        <lane id=":antrim_71_0" index="0" speed="10.00" length="45.16" shape="2261.20,3477.91 2271.28,3479.41 2278.39,3475.14 2282.51,3465.11 2283.64,3449.32"/>
    </edge>
    <edge id=":antrim_72" function="internal">
        <lane id=":antrim_72_0" index="0" speed="8.19" length="24.66" shape="2264.51,3483.30 2269.11,3483.11 2270.14,3480.12 2267.59,3474.32 2261.46,3465.72"/>
    </edge>
    <edge id=":antrim_73" function="internal">
        <lane id=":antrim_73_0" index="0" speed="9.42" length="31.31" shape="2264.51,3483.30 2271.53,3483.23 2274.34,3479.55 2272.94,3472.27 2267.32,3461.39"/>
    </edge>
    <edge id=":antrim_74" function="internal">
        <lane id=":antrim_74_0" index="0" speed="10.00" length="34.21" shape="2264.51,3483.30 2272.01,3483.08 2275.65,3478.86 2275.44,3470.63 2271.36,3458.40"/>
    </edge>
    <edge id=":antrim_75" function="internal">
        <lane id=":antrim_75_0" index="0" speed="10.00" length="34.71" shape="2264.51,3483.30 2272.08,3483.06 2275.85,3478.75 2275.83,3470.37 2272.02,3457.92"/>
    </edge>
    <edge id=":antrim_76" function="internal">
        <lane id=":antrim_76_0" index="0" speed="10.00" length="40.45" shape="2264.51,3483.30 2272.74,3482.79 2277.86,3477.56 2279.87,3467.60 2278.78,3452.91"/>
    </edge>
    <edge id=":antrim_77" function="internal">
        <lane id=":antrim_77_0" index="0" speed="10.00" length="41.95" shape="2264.51,3483.30 2272.88,3482.72 2278.32,3477.27 2280.82,3466.93 2280.40,3451.71"/>
    </edge>
    <edge id=":antrim_78" function="internal">
        <lane id=":antrim_78_0" index="0" speed="10.00" length="44.00" shape="2264.51,3483.30 2273.06,3482.63 2278.92,3476.88 2282.08,3466.05 2282.54,3450.13"/>
    </edge>
    <edge id=":antrim_79" function="internal">
        <lane id=":antrim_79_0" index="0" speed="10.00" length="45.07" shape="2264.51,3483.30 2273.15,3482.59 2279.22,3476.69 2282.72,3465.59 2283.64,3449.32"/>
    </edge>
    <edge id=":athlone_0" function="internal">
        <lane id=":athlone_0_0" index="0" speed="6.96" length="19.40" shape="1260.55,1985.54 1258.40,1978.97 1256.35,1976.72 1254.41,1978.77 1252.57,1985.13"/>
    </edge>
    <edge id=":athlone_1" function="internal">
        <lane id=":athlone_1_0" index="0" speed="7.69" length="22.55" shape="1260.55,1985.54 1258.00,1978.23 1255.21,1975.55 1252.18,1977.49 1248.91,1984.05"/>
    </edge>
    <edge id=":athlone_2" function="internal">
        <lane id=":athlone_2_0" index="0" speed="9.12" length="28.08" shape="1260.55,1985.54 1257.40,1977.40 1253.23,1973.99 1248.07,1975.32 1241.90,1981.37"/>
    </edge>
    <edge id=":athlone_3" function="internal">
        <lane id=":athlone_3_0" index="0" speed="9.96" length="26.41" shape="1260.55,1985.54 1257.60,1977.64 1253.56,1972.99 1248.43,1971.57 1242.20,1973.38"/>
    </edge>
    <edge id=":athlone_4" function="internal">
        <lane id=":athlone_4_0" index="0" speed="10.00" length="37.77" shape="1260.55,1985.54 1258.12,1978.63 1253.73,1967.88 1248.96,1957.33 1245.39,1951.01"/>
    </edge>
    <edge id=":athlone_5" function="internal">
        <lane id=":athlone_5_0" index="0" speed="10.00" length="47.30" shape="1260.55,1985.54 1259.65,1973.80 1263.45,1964.30 1271.95,1957.04 1285.14,1952.00"/>
    </edge>
    <edge id=":athlone_6" function="internal">
        <lane id=":athlone_6_0" index="0" speed="7.22" length="24.46" shape="1260.55,1985.54 1262.90,1994.40 1263.94,1997.31 1263.68,1994.26 1262.11,1985.26"/>
    </edge>
    <edge id=":athlone_7" function="internal">
        <lane id=":athlone_7_0" index="0" speed="9.02" length="35.77" shape="1260.55,1985.54 1270.50,1980.75 1277.33,1981.23 1281.04,1986.99 1281.63,1998.01"/>
    </edge>
    <edge id=":athlone_8" function="internal">
        <lane id=":athlone_8_0" index="0" speed="9.72" length="46.01" shape="1278.91,1999.75 1289.37,2013.45 1293.32,2017.73 1290.74,2012.58 1281.63,1998.01"/>
    </edge>
    <edge id=":athlone_9" function="internal">
        <lane id=":athlone_9_0" index="0" speed="8.18" length="27.49" shape="1278.91,1999.75 1270.82,1989.41 1265.32,1983.54 1262.42,1982.16 1262.11,1985.26"/>
    </edge>
    <edge id=":athlone_10" function="internal">
        <lane id=":athlone_10_0" index="0" speed="10.00" length="37.66" shape="1278.91,1999.75 1268.66,1987.30 1260.85,1980.71 1255.49,1979.99 1252.57,1985.13"/>
    </edge>
    <edge id=":athlone_11" function="internal">
        <lane id=":athlone_11_0" index="0" speed="10.00" length="40.98" shape="1278.91,1999.75 1268.11,1986.80 1259.51,1979.87 1253.11,1978.95 1248.91,1984.05"/>
    </edge>
    <edge id=":athlone_12" function="internal">
        <lane id=":athlone_12_0" index="0" speed="10.00" length="47.43" shape="1278.91,1999.75 1267.22,1986.03 1257.15,1978.39 1248.71,1976.84 1241.90,1981.37"/>
    </edge>
    <edge id=":athlone_13" function="internal">
        <lane id=":athlone_13_0" index="0" speed="10.00" length="49.72" shape="1281.61,1998.02 1270.09,1984.34 1259.68,1975.67 1250.39,1972.02 1242.20,1973.38"/>
    </edge>
    <edge id=":athlone_14" function="internal">
        <lane id=":athlone_14_0" index="0" speed="10.00" length="59.35" shape="1281.61,1998.02 1245.39,1951.01"/>
    </edge>
    <edge id=":athlone_15" function="internal">
        <lane id=":athlone_15_0" index="0" speed="10.00" length="57.85" shape="1281.61,1998.02 1272.20,1983.04 1268.30,1969.65 1271.95,1958.95 1285.14,1952.00"/>
    </edge>
    <edge id=":athlone_16" function="internal">
        <lane id=":athlone_16_0" index="0" speed="7.38" length="24.81" shape="1284.67,1995.71 1278.38,1988.98 1275.78,1987.12 1276.86,1990.13 1281.63,1998.01"/>
    </edge>
    <edge id=":athlone_17" function="internal">
        <lane id=":athlone_17_0" index="0" speed="9.41" length="35.77" shape="1284.67,1995.71 1273.49,1984.05 1266.01,1978.42 1262.21,1978.82 1262.11,1985.26"/>
    </edge>
    <edge id=":athlone_18" function="internal">
        <lane id=":athlone_18_0" index="0" speed="10.00" length="43.27" shape="1284.67,1995.71 1272.26,1983.32 1262.77,1977.43 1256.21,1978.03 1252.57,1985.13"/>
    </edge>
    <edge id=":athlone_19" function="internal">
        <lane id=":athlone_19_0" index="0" speed="10.00" length="46.03" shape="1284.67,1995.71 1271.89,1983.10 1261.67,1976.96 1254.01,1977.27 1248.91,1984.05"/>
    </edge>
    <edge id=":athlone_20" function="internal">
        <lane id=":athlone_20_0" index="0" speed="10.00" length="51.73" shape="1284.67,1995.71 1271.27,1982.73 1259.68,1976.01 1249.89,1975.56 1241.90,1981.37"/>
    </edge>
    <edge id=":athlone_21" function="internal">
        <lane id=":athlone_21_0" index="0" speed="10.00" length="50.92" shape="1284.67,1995.71 1271.95,1982.97 1260.63,1975.00 1250.71,1971.81 1242.20,1973.38"/>
    </edge>
    <edge id=":athlone_22" function="internal">
        <lane id=":athlone_22_0" index="0" speed="10.00" length="59.51" shape="1284.67,1995.71 1245.39,1951.01"/>
    </edge>
    <edge id=":athlone_23" function="internal">
        <lane id=":athlone_23_0" index="0" speed="10.00" length="55.42" shape="1284.67,1995.71 1274.63,1982.05 1270.03,1969.27 1272.87,1958.78 1285.14,1952.00"/>
    </edge>
    <edge id=":athlone_24" function="internal">
        <lane id=":athlone_24_0" index="0" speed="8.75" length="32.44" shape="1268.80,1971.59 1266.88,1971.40 1268.38,1975.74 1273.30,1984.61 1281.63,1998.01"/>
    </edge>
    <edge id=":athlone_25" function="internal">
        <lane id=":athlone_25_0" index="0" speed="7.85" length="21.72" shape="1268.80,1971.59 1264.43,1969.77 1261.86,1971.44 1261.09,1976.61 1262.11,1985.26"/>
    </edge>
    <edge id=":athlone_26" function="internal">
        <lane id=":athlone_26_0" index="0" speed="9.45" length="26.22" shape="1268.80,1971.59 1263.39,1969.46 1258.88,1971.01 1255.28,1976.23 1252.57,1985.13"/>
    </edge>
    <edge id=":athlone_27" function="internal">
        <lane id=":athlone_27_0" index="0" speed="10.00" length="27.87" shape="1268.80,1971.59 1263.04,1969.32 1257.81,1970.64 1253.10,1975.55 1248.91,1984.05"/>
    </edge>
    <edge id=":athlone_28" function="internal">
        <lane id=":athlone_28_0" index="0" speed="10.00" length="31.76" shape="1268.80,1971.59 1262.44,1969.04 1255.84,1969.82 1248.99,1973.93 1241.90,1981.37"/>
    </edge>
    <edge id=":athlone_29" function="internal">
        <lane id=":athlone_29_0" index="0" speed="10.00" length="27.92" shape="1268.80,1971.59 1263.43,1969.19 1257.21,1968.69 1250.13,1970.09 1242.20,1973.38"/>
    </edge>
    <edge id=":athlone_30" function="internal">
        <lane id=":athlone_30_0" index="0" speed="10.00" length="31.19" shape="1268.80,1971.59 1263.85,1967.73 1256.76,1961.68 1249.83,1955.44 1245.39,1951.01"/>
    </edge>
    <edge id=":athlone_31" function="internal">
        <lane id=":athlone_31_0" index="0" speed="9.70" length="33.23" shape="1268.80,1971.59 1264.46,1965.66 1267.41,1960.12 1275.14,1955.41 1285.14,1952.00"/>
    </edge>
    <edge id=":athlone_32" function="internal">
        <lane id=":athlone_32_0" index="0" speed="10.00" length="47.05" shape="1287.53,1961.58 1277.06,1965.22 1272.59,1972.51 1274.12,1983.44 1281.63,1998.01"/>
    </edge>
    <edge id=":athlone_33" function="internal">
        <lane id=":athlone_33_0" index="0" speed="10.00" length="39.60" shape="1287.53,1961.58 1275.04,1964.54 1266.64,1969.47 1262.33,1976.37 1262.11,1985.26"/>
    </edge>
    <edge id=":athlone_34" function="internal">
        <lane id=":athlone_34_0" index="0" speed="10.00" length="44.94" shape="1287.53,1961.58 1273.76,1964.62 1263.34,1969.56 1256.28,1976.39 1252.57,1985.13"/>
    </edge>
    <edge id=":athlone_35" function="internal">
        <lane id=":athlone_35_0" index="0" speed="10.00" length="46.79" shape="1287.53,1961.58 1273.24,1964.59 1262.04,1969.34 1253.93,1975.83 1248.91,1984.05"/>
    </edge>
    <edge id=":athlone_36" function="internal">
        <lane id=":athlone_36_0" index="0" speed="10.00" length="50.61" shape="1286.75,1958.46 1276.00,1962.05 1261.77,1968.95 1248.82,1976.33 1241.90,1981.37"/>
    </edge>
    <edge id=":athlone_37" function="internal">
        <lane id=":athlone_37_0" index="0" speed="10.00" length="47.36" shape="1286.75,1958.46 1276.86,1960.72 1264.10,1964.73 1251.53,1969.33 1242.20,1973.38"/>
        <lane id=":athlone_37_1" index="1" speed="10.00" length="47.36" shape="1286.75,1958.46 1276.63,1960.28 1263.38,1963.30 1250.31,1966.92 1240.75,1970.53"/>
    </edge>
    <edge id=":athlone_39" function="internal">
        <lane id=":athlone_39_0" index="0" speed="10.00" length="43.52" shape="1286.75,1958.46 1272.39,1959.59 1260.71,1958.72 1251.71,1955.86 1245.39,1951.01"/>
    </edge>
    <edge id=":athlone_40" function="internal">
        <lane id=":athlone_40_0" index="0" speed="4.87" length="9.72" shape="1286.75,1958.46 1283.93,1957.45 1282.72,1956.04 1283.12,1954.22 1285.14,1952.00"/>
    </edge>
    <edge id=":athlone_41" function="internal">
        <lane id=":athlone_41_0" index="0" speed="8.35" length="25.88" shape="1274.84,1937.45 1270.90,1944.51 1271.17,1948.76 1275.66,1950.23 1284.37,1948.90"/>
    </edge>
    <edge id=":athlone_42" function="internal">
        <lane id=":athlone_42_0" index="0" speed="10.00" length="64.75" shape="1274.84,1937.45 1268.93,1950.09 1268.09,1964.39 1272.32,1980.36 1281.63,1998.01"/>
    </edge>
    <edge id=":athlone_43" function="internal">
        <lane id=":athlone_43_0" index="0" speed="10.00" length="50.82" shape="1274.84,1937.45 1267.62,1949.41 1263.09,1961.37 1261.25,1973.31 1262.11,1985.26"/>
    </edge>
    <edge id=":athlone_44" function="internal">
        <lane id=":athlone_44_0" index="0" speed="10.00" length="52.66" shape="1274.84,1937.45 1270.28,1945.93 1263.00,1960.98 1256.08,1976.19 1252.57,1985.13"/>
    </edge>
    <edge id=":athlone_45" function="internal">
        <lane id=":athlone_45_0" index="0" speed="10.00" length="53.35" shape="1274.84,1937.45 1269.81,1945.79 1261.45,1960.53 1253.30,1975.37 1248.91,1984.05"/>
    </edge>
    <edge id=":athlone_46" function="internal">
        <lane id=":athlone_46_0" index="0" speed="10.00" length="54.90" shape="1274.84,1937.45 1241.90,1981.37"/>
    </edge>
    <edge id=":athlone_47" function="internal">
        <lane id=":athlone_47_0" index="0" speed="10.00" length="47.64" shape="1274.84,1937.45 1269.54,1943.70 1260.05,1953.82 1249.43,1964.02 1240.75,1970.53"/>
    </edge>
    <edge id=":athlone_48" function="internal">
        <lane id=":athlone_48_0" index="0" speed="10.00" length="38.00" shape="1274.84,1937.45 1267.07,1947.22 1259.53,1953.65 1252.29,1955.37 1245.39,1951.01"/>
    </edge>
    <edge id=":athlone_49" function="internal">
        <lane id=":athlone_49_0" index="0" speed="7.26" length="19.47" shape="1278.22,1940.07 1274.87,1945.45 1274.78,1948.72 1277.95,1949.87 1284.37,1948.90"/>
    </edge>
    <edge id=":athlone_50" function="internal">
        <lane id=":athlone_50_0" index="0" speed="10.00" length="62.11" shape="1278.22,1940.07 1271.52,1952.64 1269.86,1966.49 1273.23,1981.61 1281.63,1998.01"/>
    </edge>
    <edge id=":athlone_51" function="internal">
        <lane id=":athlone_51_0" index="0" speed="10.00" length="49.30" shape="1278.22,1940.07 1269.81,1952.48 1264.32,1964.15 1261.76,1975.07 1262.11,1985.26"/>
    </edge>
    <edge id=":athlone_52" function="internal">
        <lane id=":athlone_52_0" index="0" speed="10.00" length="51.92" shape="1278.22,1940.07 1271.78,1949.76 1263.49,1963.73 1256.16,1977.14 1252.57,1985.13"/>
    </edge>
    <edge id=":athlone_53" function="internal">
        <lane id=":athlone_53_0" index="0" speed="10.00" length="52.88" shape="1278.22,1940.07 1271.31,1949.62 1261.94,1963.28 1253.38,1976.32 1248.91,1984.05"/>
    </edge>
    <edge id=":athlone_54" function="internal">