<?xml version="1.0" encoding="UTF-8"?>

<!-- generated on 2025-02-19 13:03:53 by Eclipse SUMO netconvert Version 1.18.0
<configuration xmlns:xsi="http://www.w3.org/2001/XMLSchema-instance" xsi:noNamespaceSchemaLocation="http://sumo.dlr.de/xsd/netconvertConfiguration.xsd">

    <input>
        <node-files value="nod.xml"/>
        <edge-files value="edge_xmls/09931.xml"/>
    </input>

    <output>
        <output-file value="networks/09931.net.xml"/>
    </output>

</configuration>
-->

<net version="1.16" junctionCornerDetail="5" limitTurnSpeed="5.50" xmlns:xsi="http://www.w3.org/2001/XMLSchema-instance" xsi:noNamespaceSchemaLocation="http://sumo.dlr.de/xsd/net_file.xsd">

    <location netOffset="-682.00,4368.00" convBoundary="0.00,0.00,2498.00,3881.00" origBoundary="682.00,-4368.00,3180.00,-487.00" projParameter="!"/>

    <edge id=":antrim_0" function="internal">
        <lane id=":antrim_0_0" index="0" speed="7.97" length="20.18" shape="2291.42,3460.07 2291.60,3468.71 2292.57,3474.38 2294.34,3477.06 2296.90,3476.75"/>
    </edge>
    <edge id=":antrim_1" function="internal">
        <lane id=":antrim_1_0" index="0" speed="10.00" length="36.79" shape="2291.42,3460.07 2290.55,3471.94 2288.01,3481.36 2283.09,3486.39 2275.10,3485.08"/>
    </edge>
    <edge id=":antrim_2" function="internal">
        <lane id=":antrim_2_0" index="0" speed="10.00" length="56.38" shape="2291.42,3460.07 2286.92,3470.66 2276.41,3469.42 2263.23,3460.23 2250.72,3446.98"/>
    </edge>
    <edge id=":antrim_3" function="internal">
        <lane id=":antrim_3_0" index="0" speed="10.00" length="40.43" shape="2288.22,3460.00 2284.83,3467.80 2277.01,3467.47 2267.49,3461.35 2258.99,3451.80"/>
    </edge>
    <edge id=":antrim_4" function="internal">
        <lane id=":antrim_4_0" index="0" speed="8.29" length="28.75" shape="2288.22,3460.00 2285.50,3466.00 2279.41,3467.01 2272.51,3463.81 2267.38,3457.18"/>
    </edge>
    <edge id=":antrim_5" function="internal">
        <lane id=":antrim_5_0" index="0" speed="8.35" length="32.72" shape="2288.22,3460.00 2286.84,3464.14 2283.97,3458.83 2280.88,3448.40 2278.84,3437.14"/>
    </edge>
    <edge id=":antrim_6" function="internal">
        <lane id=":antrim_6_0" index="0" speed="10.00" length="46.61" shape="2281.97,3436.29 2284.77,3456.26 2288.19,3469.66 2292.23,3476.49 2296.90,3476.75"/>
    </edge>
    <edge id=":antrim_7" function="internal">
        <lane id=":antrim_7_0" index="0" speed="10.00" length="53.89" shape="2281.97,3436.29 2283.62,3456.18 2283.63,3472.99 2281.08,3483.65 2275.10,3485.08"/>
    </edge>
    <edge id=":antrim_8" function="internal">
        <lane id=":antrim_8_0" index="0" speed="9.57" length="36.70" shape="2281.97,3436.29 2278.26,3442.67 2268.77,3447.56 2258.06,3449.50 2250.72,3446.98"/>
    </edge>
    <edge id=":antrim_9" function="internal">
        <lane id=":antrim_9_0" index="0" speed="8.82" length="31.90" shape="2281.97,3436.29 2279.48,3443.47 2272.70,3450.12 2264.81,3453.73 2258.99,3451.80"/>
    </edge>
    <edge id=":antrim_10" function="internal">
        <lane id=":antrim_10_0" index="0" speed="8.37" length="30.87" shape="2281.97,3436.29 2281.41,3446.33 2278.50,3455.23 2274.42,3459.58 2270.33,3455.94"/>
    </edge>
    <edge id=":antrim_11" function="internal">
        <lane id=":antrim_11_0" index="0" speed="3.67" length="4.73" shape="2281.97,3436.29 2281.51,3437.67 2280.83,3438.27 2279.94,3438.10 2278.84,3437.14"/>
    </edge>
    <edge id=":antrim_12" function="internal">
        <lane id=":antrim_12_0" index="0" speed="10.00" length="46.94" shape="2279.59,3436.93 2283.33,3456.68 2287.47,3469.90 2291.99,3476.59 2296.90,3476.75"/>
    </edge>
    <edge id=":antrim_13" function="internal">
        <lane id=":antrim_13_0" index="0" speed="10.00" length="53.13" shape="2279.59,3436.93 2282.13,3456.45 2282.93,3473.09 2280.93,3483.69 2275.10,3485.08"/>
    </edge>
    <edge id=":antrim_14" function="internal">
        <lane id=":antrim_14_0" index="0" speed="9.20" length="34.51" shape="2279.59,3436.93 2276.43,3443.19 2267.73,3447.87 2257.75,3449.59 2250.72,3446.98"/>
    </edge>
    <edge id=":antrim_15" function="internal">
        <lane id=":antrim_15_0" index="0" speed="8.43" length="29.55" shape="2279.59,3436.93 2277.58,3443.77 2271.55,3450.14 2264.39,3453.62 2258.99,3451.80"/>
    </edge>
    <edge id=":antrim_16" function="internal">
        <lane id=":antrim_16_0" index="0" speed="7.39" length="24.03" shape="2279.59,3436.93 2278.98,3443.76 2276.39,3451.49 2273.08,3456.69 2270.33,3455.94"/>
    </edge>
    <edge id=":antrim_17" function="internal">
        <lane id=":antrim_17_0" index="0" speed="6.05" length="16.60" shape="2279.59,3436.93 2278.60,3430.82 2278.14,3428.81 2278.22,3430.92 2278.84,3437.14"/>
    </edge>
    <edge id=":antrim_18" function="internal">
        <lane id=":antrim_18_0" index="0" speed="7.64" length="27.05" shape="2275.57,3438.03 2278.07,3447.70 2279.46,3450.77 2279.71,3447.25 2278.84,3437.14"/>
    </edge>
    <edge id=":antrim_19" function="internal">
        <lane id=":antrim_19_0" index="0" speed="10.00" length="47.75" shape="2275.57,3438.03 2280.91,3457.39 2286.25,3470.30 2291.58,3476.75 2296.90,3476.75"/>
    </edge>
    <edge id=":antrim_20" function="internal">
        <lane id=":antrim_20_0" index="0" speed="10.00" length="52.09" shape="2275.57,3438.03 2279.59,3456.93 2281.74,3473.27 2280.68,3483.76 2275.10,3485.08"/>
    </edge>
    <edge id=":antrim_21" function="internal">
        <lane id=":antrim_21_0" index="0" speed="8.59" length="30.80" shape="2275.57,3438.03 2273.31,3444.01 2265.95,3448.31 2257.19,3449.70 2250.72,3446.98"/>
    </edge>
    <edge id=":antrim_22" function="internal">
        <lane id=":antrim_22_0" index="0" speed="7.70" length="25.14" shape="2275.57,3438.03 2274.24,3443.96 2269.41,3449.77 2263.51,3453.14 2258.99,3451.80"/>
    </edge>
    <edge id=":antrim_23" function="internal">
        <lane id=":antrim_23_0" index="0" speed="6.85" length="20.99" shape="2275.57,3438.03 2275.69,3444.19 2274.39,3451.41 2272.37,3456.41 2270.33,3455.94"/>
    </edge>
    <edge id=":antrim_24" function="internal">
        <lane id=":antrim_24_0" index="0" speed="8.52" length="33.64" shape="2273.45,3438.60 2277.14,3450.40 2279.27,3454.08 2279.83,3449.66 2278.84,3437.14"/>
    </edge>
    <edge id=":antrim_25" function="internal">
        <lane id=":antrim_25_0" index="0" speed="10.00" length="51.74" shape="2273.45,3438.60 2280.09,3459.13 2286.49,3472.79 2292.65,3479.57 2298.56,3479.48"/>
    </edge>
    <edge id=":antrim_26" function="internal">
        <lane id=":antrim_26_0" index="0" speed="10.00" length="51.68" shape="2273.45,3438.60 2278.24,3457.18 2281.11,3473.37 2280.55,3483.80 2275.10,3485.08"/>
    </edge>
    <edge id=":antrim_27" function="internal">
        <lane id=":antrim_27_0" index="0" speed="8.19" length="28.31" shape="2273.45,3438.60 2271.53,3444.08 2264.79,3448.08 2256.70,3449.44 2250.72,3446.98"/>
    </edge>
    <edge id=":antrim_28" function="internal">
        <lane id=":antrim_28_0" index="0" speed="6.61" length="19.66" shape="2273.45,3438.60 2273.96,3444.46 2273.34,3451.42 2272.00,3456.31 2270.33,3455.94"/>
    </edge>
    <edge id=":antrim_29" function="internal">
        <lane id=":antrim_29_0" index="0" speed="8.11" length="28.59" shape="2273.45,3438.60 2274.79,3447.32 2272.82,3452.43 2267.56,3453.92 2258.99,3451.80"/>
    </edge>
    <edge id=":antrim_30" function="internal">
        <lane id=":antrim_30_0" index="0" speed="8.84" length="35.00" shape="2274.06,3454.37 2277.77,3461.94 2279.80,3461.59 2280.16,3453.32 2278.84,3437.14"/>
    </edge>
    <edge id=":antrim_31" function="internal">
        <lane id=":antrim_31_0" index="0" speed="10.00" length="38.98" shape="2274.06,3454.37 2280.36,3468.05 2286.55,3476.79 2292.62,3480.60 2298.56,3479.48"/>
    </edge>
    <edge id=":antrim_32" function="internal">
        <lane id=":antrim_32_0" index="0" speed="9.97" length="37.49" shape="2274.06,3454.37 2278.50,3466.73 2281.29,3477.97 2280.73,3485.10 2275.10,3485.08"/>
    </edge>
    <edge id=":antrim_33" function="internal">
        <lane id=":antrim_33_0" index="0" speed="8.63" length="32.98" shape="2274.06,3454.37 2273.70,3460.06 2267.43,3459.42 2258.63,3454.42 2250.72,3446.98"/>
    </edge>
    <edge id=":antrim_34" function="internal">
        <lane id=":antrim_34_0" index="0" speed="6.39" length="17.62" shape="2274.06,3454.37 2272.89,3456.57 2268.30,3456.45 2262.81,3454.65 2258.99,3451.80"/>
    </edge>
    <edge id=":antrim_35" function="internal">
        <lane id=":antrim_35_0" index="0" speed="3.97" length="5.91" shape="2274.06,3454.37 2273.71,3456.17 2272.98,3457.02 2271.85,3456.95 2270.33,3455.94"/>
    </edge>
    <edge id=":antrim_36" function="internal">
        <lane id=":antrim_36_0" index="0" speed="9.60" length="42.12" shape="2244.59,3454.55 2256.91,3463.42 2262.04,3465.12 2259.98,3459.64 2250.72,3446.98"/>
    </edge>
    <edge id=":antrim_37" function="internal">
        <lane id=":antrim_37_0" index="0" speed="9.71" length="41.91" shape="2244.59,3454.55 2258.40,3464.49 2265.40,3467.34 2265.60,3463.11 2258.99,3451.80"/>
    </edge>
    <edge id=":antrim_38" function="internal">
        <lane id=":antrim_38_0" index="0" speed="9.65" length="38.23" shape="2244.59,3454.55 2258.15,3464.21 2266.46,3467.87 2269.54,3465.53 2267.38,3457.18"/>
    </edge>
    <edge id=":antrim_39" function="internal">
        <lane id=":antrim_39_0" index="0" speed="10.00" length="61.41" shape="2244.59,3454.55 2261.51,3465.03 2272.86,3465.63 2278.64,3456.33 2278.84,3437.14"/>
    </edge>
    <edge id=":antrim_40" function="internal">
        <lane id=":antrim_40_0" index="0" speed="10.00" length="61.44" shape="2244.59,3454.55 2263.53,3468.30 2278.84,3477.04 2290.52,3480.77 2298.56,3479.48"/>
    </edge>
    <edge id=":antrim_41" function="internal">
        <lane id=":antrim_41_0" index="0" speed="10.00" length="63.03" shape="2244.59,3454.55 2263.66,3450.74 2275.11,3454.56 2278.92,3466.01 2275.10,3485.08"/>
    </edge>
    <edge id=":antrim_42" function="internal">
        <lane id=":antrim_42_0" index="0" speed="5.48" length="9.67" shape="2274.61,3491.15 2277.39,3489.84 2278.40,3488.40 2277.63,3486.81 2275.10,3485.08"/>
    </edge>
    <edge id=":antrim_43" function="internal">
        <lane id=":antrim_43_0" index="0" speed="10.00" length="52.28" shape="2274.61,3491.15 2276.39,3487.29 2273.00,3478.64 2264.45,3465.20 2250.72,3446.98"/>
    </edge>
    <edge id=":antrim_44" function="internal">
        <lane id=":antrim_44_0" index="0" speed="10.00" length="44.63" shape="2274.61,3491.15 2276.97,3487.57 2275.15,3479.81 2269.16,3467.89 2258.99,3451.80"/>
    </edge>
    <edge id=":antrim_45" function="internal">
        <lane id=":antrim_45_0" index="0" speed="10.00" length="36.01" shape="2274.61,3491.15 2276.49,3488.24 2275.91,3481.61 2272.87,3471.26 2267.38,3457.18"/>
    </edge>
    <edge id=":antrim_46" function="internal">
        <lane id=":antrim_46_0" index="0" speed="10.00" length="55.70" shape="2274.61,3491.15 2278.50,3486.55 2280.50,3476.02 2280.61,3459.55 2278.84,3437.14"/>
    </edge>
    <edge id=":antrim_47" function="internal">
        <lane id=":antrim_47_0" index="0" speed="10.00" length="26.62" shape="2274.61,3491.15 2278.89,3488.96 2284.33,3485.30 2290.48,3480.97 2296.90,3476.75"/>
        <lane id=":antrim_47_1" index="1" speed="10.00" length="26.62" shape="2274.61,3491.15 2279.15,3489.38 2285.16,3486.67 2291.88,3483.27 2298.56,3479.48"/>
    </edge>
    <edge id=":athlone_0" function="internal">
        <lane id=":athlone_0_0" index="0" speed="9.22" length="36.16" shape="1282.22,2002.76 1272.18,1988.39 1265.32,1979.77 1261.62,1976.89 1261.10,1979.77"/>
    </edge>
    <edge id=":athlone_1" function="internal">
        <lane id=":athlone_1_0" index="0" speed="10.00" length="60.17" shape="1282.22,2002.76 1276.28,1993.73 1265.76,1977.57 1255.35,1961.36 1249.70,1952.15"/>
    </edge>
    <edge id=":athlone_2" function="internal">
        <lane id=":athlone_2_0" index="0" speed="10.00" length="63.75" shape="1282.22,2002.76 1276.87,1992.66 1267.86,1974.09 1259.45,1955.36 1255.94,1944.78"/>
    </edge>
    <edge id=":athlone_3" function="internal">
        <lane id=":athlone_3_0" index="0" speed="10.00" length="71.05" shape="1282.22,2002.76 1271.05,1982.96 1265.71,1965.39 1266.22,1950.04 1272.57,1936.91"/>
    </edge>
    <edge id=":athlone_4" function="internal">
        <lane id=":athlone_4_0" index="0" speed="10.00" length="49.43" shape="1282.22,2002.76 1273.35,1988.55 1266.96,1975.05 1266.36,1965.91 1274.86,1964.79"/>
    </edge>
    <edge id=":athlone_5" function="internal">
        <lane id=":athlone_5_0" index="0" speed="5.67" length="13.85" shape="1282.22,2002.76 1281.73,1999.46 1283.90,1996.92 1287.32,1996.00 1290.59,1997.55"/>
    </edge>
    <edge id=":athlone_6" function="internal">
        <lane id=":athlone_6_0" index="0" speed="3.90" length="5.55" shape="1282.22,2002.76 1286.83,1999.67"/>
    </edge>
    <edge id=":athlone_7" function="internal">
        <lane id=":athlone_7_0" index="0" speed="3.20" length="3.02" shape="1282.22,2002.76 1282.24,2001.83 1282.54,2001.34 1283.11,2001.28 1283.97,2001.65"/>
    </edge>
    <edge id=":athlone_8" function="internal">
        <lane id=":athlone_8_0" index="0" speed="9.19" length="38.27" shape="1295.95,1989.96 1284.25,1982.74 1279.46,1981.61 1281.57,1986.54 1290.59,1997.55"/>
    </edge>
    <edge id=":athlone_9" function="internal">
        <lane id=":athlone_9_0" index="0" speed="9.77" length="42.15" shape="1295.95,1989.96 1283.00,1982.19 1277.16,1981.22 1278.44,1987.05 1286.83,1999.67"/>
    </edge>
    <edge id=":athlone_10" function="internal">
        <lane id=":athlone_10_0" index="0" speed="10.00" length="44.82" shape="1295.95,1989.96 1282.30,1981.96 1275.75,1981.24 1276.31,1987.81 1283.97,2001.65"/>
    </edge>
    <edge id=":athlone_11" function="internal">
        <lane id=":athlone_11_0" index="0" speed="10.00" length="42.98" shape="1295.95,1989.96 1279.64,1979.76 1268.40,1974.66 1262.21,1974.66 1261.10,1979.77"/>
    </edge>
    <edge id=":athlone_12" function="internal">
        <lane id=":athlone_12_0" index="0" speed="10.00" length="59.79" shape="1295.95,1989.96 1287.30,1983.49 1272.12,1971.67 1257.30,1959.54 1249.70,1952.15"/>
    </edge>
    <edge id=":athlone_13" function="internal">
        <lane id=":athlone_13_0" index="0" speed="10.00" length="62.25" shape="1295.95,1989.96 1277.84,1976.57 1265.13,1964.58 1257.83,1953.99 1255.94,1944.78"/>
    </edge>
    <edge id=":athlone_14" function="internal">
        <lane id=":athlone_14_0" index="0" speed="10.00" length="65.76" shape="1295.95,1989.96 1278.64,1975.92 1268.98,1962.40 1266.95,1949.40 1272.57,1936.91"/>
    </edge>
    <edge id=":athlone_15" function="internal">
        <lane id=":athlone_15_0" index="0" speed="10.00" length="47.95" shape="1295.95,1989.96 1281.24,1991.57 1272.82,1987.92 1270.70,1978.99 1274.86,1964.79"/>
    </edge>
    <edge id=":athlone_16" function="internal">
        <lane id=":athlone_16_0" index="0" speed="5.67" length="12.44" shape="1275.03,1960.04 1270.78,1960.91 1269.34,1961.99 1270.70,1963.28 1274.86,1964.79"/>
    </edge>
    <edge id=":athlone_17" function="internal">
        <lane id=":athlone_17_0" index="0" speed="10.00" length="46.74" shape="1275.03,1960.04 1270.06,1963.19 1271.00,1970.49 1277.84,1981.94 1290.59,1997.55"/>
    </edge>
    <edge id=":athlone_18" function="internal">
        <lane id=":athlone_18_0" index="0" speed="10.00" length="47.31" shape="1275.03,1960.04 1269.72,1963.34 1269.92,1971.04 1275.62,1983.15 1286.83,1999.67"/>
    </edge>
    <edge id=":athlone_19" function="internal">
        <lane id=":athlone_19_0" index="0" speed="10.00" length="48.30" shape="1275.03,1960.04 1269.47,1963.47 1269.10,1971.55 1273.94,1984.28 1283.97,2001.65"/>
    </edge>
    <edge id=":athlone_20" function="internal">
        <lane id=":athlone_20_0" index="0" speed="10.00" length="27.85" shape="1275.03,1960.04 1267.73,1962.15 1262.97,1966.13 1260.76,1972.01 1261.10,1979.77"/>
    </edge>
    <edge id=":athlone_21" function="internal">
        <lane id=":athlone_21_0" index="0" speed="10.00" length="28.25" shape="1275.03,1960.04 1265.97,1960.56 1258.73,1959.42 1253.30,1956.61 1249.70,1952.15"/>
    </edge>
    <edge id=":athlone_22" function="internal">
        <lane id=":athlone_22_0" index="0" speed="10.00" length="29.92" shape="1275.03,1960.04 1266.19,1960.33 1259.96,1958.16 1256.49,1953.13 1255.94,1944.78"/>
    </edge>
    <edge id=":athlone_23" function="internal">
        <lane id=":athlone_23_0" index="0" speed="9.19" length="30.59" shape="1275.03,1960.04 1268.13,1958.60 1266.04,1952.96 1267.82,1945.08 1272.57,1936.91"/>
    </edge>
    <edge id=":athlone_24" function="internal">
        <lane id=":athlone_24_0" index="0" speed="4.81" length="8.00" shape="1275.30,1961.09 1272.62,1961.99 1271.65,1962.90 1272.40,1963.84 1274.86,1964.79"/>
    </edge>
    <edge id=":athlone_25" function="internal">
        <lane id=":athlone_25_0" index="0" speed="10.00" length="44.58" shape="1275.30,1961.09 1271.02,1964.68 1272.14,1971.96 1278.67,1982.92 1290.59,1997.55"/>
    </edge>
    <edge id=":athlone_26" function="internal">
        <lane id=":athlone_26_0" index="0" speed="10.00" length="45.28" shape="1275.30,1961.09 1270.58,1964.87 1270.93,1972.56 1276.34,1984.16 1286.83,1999.67"/>
    </edge>
    <edge id=":athlone_27" function="internal">
        <lane id=":athlone_27_0" index="0" speed="10.00" length="46.37" shape="1275.30,1961.09 1270.24,1965.03 1270.00,1973.11 1274.58,1985.32 1283.97,2001.65"/>
    </edge>
    <edge id=":athlone_28" function="internal">
        <lane id=":athlone_28_0" index="0" speed="10.00" length="26.34" shape="1275.30,1961.09 1268.08,1963.85 1263.31,1967.88 1260.98,1973.19 1261.10,1979.77"/>
    </edge>
    <edge id=":athlone_29" function="internal">
        <lane id=":athlone_29_0" index="0" speed="10.00" length="27.55" shape="1274.51,1957.98 1265.70,1959.45 1258.63,1958.97 1253.30,1956.53 1249.70,1952.15"/>
    </edge>
    <edge id=":athlone_30" function="internal">
        <lane id=":athlone_30_0" index="0" speed="9.41" length="25.26" shape="1274.51,1957.98 1268.40,1957.77 1262.20,1954.91 1257.50,1950.30 1255.94,1944.78"/>
    </edge>
    <edge id=":athlone_31" function="internal">
        <lane id=":athlone_31_0" index="0" speed="8.62" length="28.11" shape="1274.51,1957.98 1268.39,1957.21 1266.57,1952.01 1268.24,1944.53 1272.57,1936.91"/>
    </edge>
    <edge id=":athlone_32" function="internal">
        <lane id=":athlone_32_0" index="0" speed="10.00" length="32.36" shape="1274.28,1938.23 1268.45,1948.09 1266.60,1955.80 1268.73,1961.37 1274.86,1964.79"/>
    </edge>
    <edge id=":athlone_33" function="internal">
        <lane id=":athlone_33_0" index="0" speed="10.00" length="66.35" shape="1274.28,1938.23 1269.21,1950.44 1270.24,1964.39 1277.37,1980.10 1290.59,1997.55"/>
    </edge>
    <edge id=":athlone_34" function="internal">
        <lane id=":athlone_34_0" index="0" speed="10.00" length="66.95" shape="1274.28,1938.23 1268.95,1950.60 1269.27,1964.97 1275.23,1981.32 1286.83,1999.67"/>
    </edge>
    <edge id=":athlone_35" function="internal">
        <lane id=":athlone_35_0" index="0" speed="10.00" length="67.95" shape="1274.28,1938.23 1268.76,1950.75 1268.53,1965.50 1273.60,1982.46 1283.97,2001.65"/>
    </edge>
    <edge id=":athlone_36" function="internal">
        <lane id=":athlone_36_0" index="0" speed="10.00" length="44.69" shape="1274.28,1938.23 1267.24,1949.51 1262.69,1960.19 1260.65,1970.27 1261.10,1979.77"/>
    </edge>
    <edge id=":athlone_37" function="internal">
        <lane id=":athlone_37_0" index="0" speed="9.84" length="30.06" shape="1274.28,1938.23 1268.66,1944.25 1261.12,1950.01 1254.02,1953.37 1249.70,1952.15"/>
    </edge>
    <edge id=":athlone_38" function="internal">
        <lane id=":athlone_38_0" index="0" speed="8.07" length="25.99" shape="1274.28,1938.23 1268.61,1944.48 1262.36,1948.85 1257.49,1949.54 1255.94,1944.78"/>
    </edge>
    <edge id=":athlone_39" function="internal">
        <lane id=":athlone_39_0" index="0" speed="3.24" length="3.16" shape="1274.28,1938.23 1273.36,1938.55 1272.77,1938.43 1272.50,1937.88 1272.57,1936.91"/>
    </edge>
    <edge id=":athlone_40" function="internal">
        <lane id=":athlone_40_0" index="0" speed="10.00" length="29.51" shape="1276.50,1939.95 1270.89,1949.40 1268.76,1956.69 1270.08,1961.82 1274.86,1964.79"/>
    </edge>
    <edge id=":athlone_41" function="internal">
        <lane id=":athlone_41_0" index="0" speed="10.00" length="64.07" shape="1276.50,1939.95 1271.27,1952.32 1271.88,1966.05 1278.32,1981.12 1290.59,1997.55"/>
    </edge>
    <edge id=":athlone_42" function="internal">
        <lane id=":athlone_42_0" index="0" speed="10.00" length="64.82" shape="1276.50,1939.95 1270.95,1952.58 1270.83,1966.74 1276.12,1982.44 1286.83,1999.67"/>
    </edge>
    <edge id=":athlone_43" function="internal">
        <lane id=":athlone_43_0" index="0" speed="10.00" length="65.93" shape="1276.50,1939.95 1270.70,1952.80 1270.01,1967.38 1274.44,1983.66 1283.97,2001.65"/>
    </edge>
    <edge id=":athlone_44" function="internal">
        <lane id=":athlone_44_0" index="0" speed="10.00" length="43.57" shape="1276.50,1939.95 1268.79,1952.13 1263.65,1962.82 1261.09,1972.04 1261.10,1979.77"/>
    </edge>
    <edge id=":athlone_45" function="internal">
        <lane id=":athlone_45_0" index="0" speed="9.79" length="29.95" shape="1273.96,1937.98 1268.43,1944.07 1261.01,1949.93 1254.00,1953.36 1249.70,1952.15"/>
    </edge>
    <edge id=":athlone_46" function="internal">
        <lane id=":athlone_46_0" index="0" speed="7.44" length="21.92" shape="1273.96,1937.98 1269.51,1942.17 1263.35,1945.76 1257.98,1947.16 1255.94,1944.78"/>
    </edge>
    <edge id=":athlone_47" function="internal">
        <lane id=":athlone_47_0" index="0" speed="8.57" length="35.57" shape="1273.96,1937.98 1281.49,1926.98 1283.76,1923.13 1280.79,1926.44 1272.57,1936.91"/>
    </edge>
    <edge id=":athlone_48" function="internal">
        <lane id=":athlone_48_0" index="0" speed="6.34" length="17.10" shape="1268.93,1934.86 1266.72,1940.69 1266.59,1942.97 1268.54,1941.71 1272.57,1936.91"/>
    </edge>
    <edge id=":athlone_49" function="internal">
        <lane id=":athlone_49_0" index="0" speed="10.00" length="35.18" shape="1268.93,1934.86 1265.27,1946.15 1265.04,1954.90 1268.24,1961.11 1274.86,1964.79"/>
    </edge>
    <edge id=":athlone_50" function="internal">
        <lane id=":athlone_50_0" index="0" speed="10.00" length="69.76" shape="1268.93,1934.86 1266.14,1948.47 1268.82,1963.45 1276.97,1979.81 1290.59,1997.55"/>
    </edge>
    <edge id=":athlone_51" function="internal">
        <lane id=":athlone_51_0" index="0" speed="10.00" length="70.17" shape="1268.93,1934.86 1265.89,1948.63 1267.86,1964.03 1274.84,1981.04 1286.83,1999.67"/>
    </edge>
    <edge id=":athlone_52" function="internal">
        <lane id=":athlone_52_0" index="0" speed="10.00" length="71.02" shape="1268.93,1934.86 1265.70,1948.78 1267.13,1964.55 1273.22,1982.18 1283.97,2001.65"/>
    </edge>
    <edge id=":athlone_53" function="internal">
        <lane id=":athlone_53_0" index="0" speed="10.00" length="45.67" shape="1268.93,1934.86 1266.75,1943.13 1263.94,1957.19 1261.66,1971.32 1261.10,1979.77"/>
    </edge>
    <edge id=":athlone_54" function="internal">
        <lane id=":athlone_54_0" index="0" speed="9.05" length="28.25" shape="1268.93,1934.86 1264.95,1941.79 1259.25,1948.84 1253.58,1953.23 1249.70,1952.15"/>
    </edge>
    <edge id=":athlone_55" function="internal">
        <lane id=":athlone_55_0" index="0" speed="7.16" length="21.91" shape="1268.93,1934.86 1265.27,1941.21 1260.77,1946.34 1257.10,1948.22 1255.94,1944.78"/>
    </edge>
    <edge id=":athlone_56" function="internal">
        <lane id=":athlone_56_0" index="0" speed="4.77" length="8.61" shape="1270.53,1935.45 1269.57,1938.49 1269.59,1939.74 1270.59,1939.22 1272.57,1936.91"/>
    </edge>
    <edge id=":athlone_57" function="internal">
        <lane id=":athlone_57_0" index="0" speed="10.00" length="33.33" shape="1270.53,1935.45 1267.29,1946.80 1266.94,1955.48 1269.46,1961.47 1274.86,1964.79"/>
    </edge>
    <edge id=":athlone_58" function="internal">
        <lane id=":athlone_58_0" index="0" speed="10.00" length="68.48" shape="1270.53,1935.45 1267.92,1949.80 1270.40,1964.94 1277.96,1980.85 1290.59,1997.55"/>
    </edge>
    <edge id=":athlone_59" function="internal">
        <lane id=":athlone_59_0" index="0" speed="10.00" length="69.00" shape="1270.53,1935.45 1267.63,1950.10 1269.38,1965.68 1275.78,1982.21 1286.83,1999.67"/>
    </edge>
    <edge id=":athlone_60" function="internal">
        <lane id=":athlone_60_0" index="0" speed="10.00" length="69.93" shape="1270.53,1935.45 1267.40,1950.37 1268.60,1966.37 1274.12,1983.46 1283.97,2001.65"/>
    </edge>
    <edge id=":athlone_61" function="internal">
        <lane id=":athlone_61_0" index="0" speed="10.00" length="46.01" shape="1267.53,1934.34 1264.94,1944.70 1262.67,1958.73 1261.23,1971.91 1261.10,1979.77"/>
    </edge>
    <edge id=":athlone_62" function="internal">
        <lane id=":athlone_62_0" index="0" speed="8.86" length="27.70" shape="1267.53,1934.34 1263.98,1941.35 1258.75,1948.61 1253.46,1953.18 1249.70,1952.15"/>
    </edge>
    <edge id=":athlone_63" function="internal">
        <lane id=":athlone_63_0" index="0" speed="6.42" length="17.54" shape="1267.53,1934.34 1264.89,1938.76 1260.87,1943.33 1257.29,1946.02 1255.94,1944.78"/>
    </edge>
    <edge id=":athlone_64" function="internal">
        <lane id=":athlone_64_0" index="0" speed="7.44" length="21.48" shape="1259.13,1945.09 1259.59,1948.53 1261.98,1948.32 1266.31,1944.44 1272.57,1936.91"/>
    </edge>
    <edge id=":athlone_65" function="internal">
        <lane id=":athlone_65_0" index="0" speed="10.00" length="27.67" shape="1259.13,1945.09 1259.58,1951.85 1262.36,1957.38 1267.45,1961.70 1274.86,1964.79"/>
    </edge>
    <edge id=":athlone_66" function="internal">
        <lane id=":athlone_66_0" index="0" speed="10.00" length="62.20" shape="1259.13,1945.09 1260.54,1954.13 1266.26,1965.89 1276.27,1980.36 1290.59,1997.55"/>
    </edge>
    <edge id=":athlone_67" function="internal">
        <lane id=":athlone_67_0" index="0" speed="10.00" length="61.32" shape="1259.13,1945.09 1262.83,1955.15 1271.68,1972.74 1281.18,1990.15 1286.83,1999.67"/>
    </edge>
    <edge id=":athlone_68" function="internal">
        <lane id=":athlone_68_0" index="0" speed="10.00" length="61.87" shape="1259.13,1945.09 1262.43,1955.43 1270.36,1973.66 1278.88,1991.74 1283.97,2001.65"/>
    </edge>
    <edge id=":athlone_69" function="internal">
        <lane id=":athlone_69_0" index="0" speed="10.00" length="34.76" shape="1259.13,1945.09 1259.11,1951.92 1259.59,1962.45 1260.34,1972.97 1261.10,1979.77"/>
    </edge>
    <edge id=":athlone_70" function="internal">
        <lane id=":athlone_70_0" index="0" speed="6.05" length="13.54" shape="1259.13,1945.09 1257.75,1948.33 1254.94,1951.40 1251.87,1953.07 1249.70,1952.15"/>
    </edge>
    <edge id=":athlone_71" function="internal">
        <lane id=":athlone_71_0" index="0" speed="3.65" length="4.67" shape="1259.13,1945.09 1258.22,1946.21 1257.38,1946.53 1256.62,1946.05 1255.94,1944.78"/>
    </edge>
    <edge id=":athlone_72" function="internal">
        <lane id=":athlone_72_0" index="0" speed="2.61" length="1.11" shape="1249.46,1952.40 1249.75,1952.65 1249.89,1952.70 1249.87,1952.53 1249.70,1952.15"/>
    </edge>
    <edge id=":athlone_73" function="internal">
        <lane id=":athlone_73_0" index="0" speed="6.46" length="13.46" shape="1249.46,1952.40 1251.84,1953.85 1253.71,1953.06 1255.08,1950.04 1255.94,1944.78"/>
    </edge>
    <edge id=":athlone_74" function="internal">
        <lane id=":athlone_74_0" index="0" speed="10.00" length="30.10" shape="1249.46,1952.40 1253.29,1953.76 1258.42,1951.63 1264.85,1946.01 1272.57,1936.91"/>
    </edge>
    <edge id=":athlone_75" function="internal">
        <lane id=":athlone_75_0" index="0" speed="10.00" length="28.35" shape="1249.46,1952.40 1254.26,1955.61 1261.70,1959.38 1269.37,1962.76 1274.86,1964.79"/>
    </edge>
    <edge id=":athlone_76" function="internal">
        <lane id=":athlone_76_0" index="0" speed="10.00" length="61.08" shape="1249.46,1952.40 1290.59,1997.55"/>
    </edge>
    <edge id=":athlone_77" function="internal">
        <lane id=":athlone_77_0" index="0" speed="10.00" length="60.27" shape="1249.46,1952.40 1256.39,1960.69 1268.37,1975.84 1280.24,1991.09 1286.83,1999.67"/>
    </edge>
    <edge id=":athlone_78" function="internal">
        <lane id=":athlone_78_0" index="0" speed="10.00" length="60.15" shape="1249.46,1952.40 1255.98,1960.97 1267.04,1976.76 1277.94,1992.67 1283.97,2001.65"/>
    </edge>
    <edge id=":athlone_79" function="internal">
        <lane id=":athlone_79_0" index="0" speed="10.00" length="29.87" shape="1249.46,1952.40 1252.66,1957.46 1256.28,1965.55 1259.40,1973.91 1261.10,1979.77"/>
    </edge>
    <edge id=":athlone_80" function="internal">
        <lane id=":athlone_80_0" index="0" speed="5.19" length="8.40" shape="1246.92,1956.79 1249.34,1957.13 1250.61,1956.47 1250.73,1954.81 1249.70,1952.15"/>
    </edge>
    <edge id=":athlone_81" function="internal">
        <lane id=":athlone_81_0" index="0" speed="8.28" length="17.34" shape="1246.92,1956.79 1250.36,1956.85 1253.01,1954.87 1254.87,1950.84 1255.94,1944.78"/>
    </edge>
    <edge id=":athlone_82" function="internal">
        <lane id=":athlone_82_0" index="0" speed="10.00" length="33.64" shape="1246.92,1956.79 1251.70,1956.44 1257.57,1953.01 1264.53,1946.50 1272.57,1936.91"/>
    </edge>
    <edge id=":athlone_83" function="internal">
        <lane id=":athlone_83_0" index="0" speed="10.00" length="29.06" shape="1246.92,1956.79 1274.86,1964.79"/>
    </edge>
    <edge id=":athlone_84" function="internal">