<?xml version="1.0" encoding="UTF-8"?>

<!-- generated on 2025-02-19 13:04:08 by Eclipse SUMO netconvert Version 1.18.0
<configuration xmlns:xsi="http://www.w3.org/2001/XMLSchema-instance" xsi:noNamespaceSchemaLocation="http://sumo.dlr.de/xsd/netconvertConfiguration.xsd">

    <input>
        <node-files value="nod.xml"/>
        <edge-files value="edge_xmls/09948.xml"/>
    </input>

    <output>
        <output-file value="networks/09948.net.xml"/>
    </output>

</configuration>
-->

<net version="1.16" junctionCornerDetail="5" limitTurnSpeed="5.50" xmlns:xsi="http://www.w3.org/2001/XMLSchema-instance" xsi:noNamespaceSchemaLocation="http://sumo.dlr.de/xsd/net_file.xsd">

    <location netOffset="-682.00,4368.00" convBoundary="0.00,0.00,2498.00,3881.00" origBoundary="682.00,-4368.00,3180.00,-487.00" projParameter="!"/>

    <edge id=":antrim_0" function="internal">
        <lane id=":antrim_0_0" index="0" speed="10.00" length="52.22" shape="2290.98,3450.48 2288.51,3469.64 2284.89,3483.96 2280.11,3493.43 2274.18,3498.05"/>
    </edge>
    <edge id=":antrim_1" function="internal">
        <lane id=":antrim_1_0" index="0" speed="10.00" length="48.58" shape="2290.98,3450.48 2288.87,3467.15 2285.24,3480.28 2279.49,3488.00 2270.98,3488.45"/>
    </edge>
    <edge id=":antrim_2" function="internal">
        <lane id=":antrim_2_0" index="0" speed="10.00" length="60.07" shape="2290.98,3450.48 2285.36,3463.64 2273.83,3466.37 2259.36,3460.89 2244.91,3449.43"/>
    </edge>
    <edge id=":antrim_3" function="internal">
        <lane id=":antrim_3_0" index="0" speed="10.00" length="49.91" shape="2290.98,3450.48 2286.21,3461.95 2276.50,3465.55 2264.57,3462.21 2253.17,3452.88"/>
    </edge>
    <edge id=":antrim_4" function="internal">
        <lane id=":antrim_4_0" index="0" speed="10.00" length="45.22" shape="2290.98,3450.48 2286.50,3460.56 2277.43,3463.26 2266.65,3459.54 2257.01,3450.35"/>
    </edge>
    <edge id=":antrim_5" function="internal">
        <lane id=":antrim_5_0" index="0" speed="9.52" length="37.64" shape="2290.98,3450.48 2286.95,3458.41 2278.95,3459.89 2270.10,3455.84 2263.52,3447.19"/>
    </edge>
    <edge id=":antrim_6" function="internal">
        <lane id=":antrim_6_0" index="0" speed="6.05" length="15.34" shape="2290.98,3450.48 2288.95,3453.46 2284.82,3455.48 2280.61,3455.88 2278.39,3454.01"/>
    </edge>
    <edge id=":antrim_7" function="internal">
        <lane id=":antrim_7_0" index="0" speed="5.92" length="14.70" shape="2290.98,3450.48 2289.03,3453.34 2285.06,3455.27 2281.03,3455.66 2278.92,3453.86"/>
    </edge>
    <edge id=":antrim_8" function="internal">
        <lane id=":antrim_8_0" index="0" speed="5.45" length="12.60" shape="2290.98,3450.48 2289.78,3454.17 2287.99,3455.80 2285.62,3455.34 2282.67,3452.81"/>
    </edge>
    <edge id=":antrim_9" function="internal">
        <lane id=":antrim_9_0" index="0" speed="3.74" length="4.87" shape="2279.29,3453.76 2278.85,3452.00 2278.64,3451.43 2278.67,3452.05 2278.92,3453.86"/>
    </edge>
    <edge id=":antrim_10" function="internal">
        <lane id=":antrim_10_0" index="0" speed="2.63" length="1.23" shape="2279.29,3453.76 2279.41,3454.19 2279.48,3454.32 2279.52,3454.16 2279.51,3453.70"/>
    </edge>
    <edge id=":antrim_11" function="internal">
        <lane id=":antrim_11_0" index="0" speed="10.00" length="47.76" shape="2279.29,3453.76 2282.48,3471.31 2282.68,3484.54 2279.92,3493.46 2274.18,3498.05"/>
    </edge>
    <edge id=":antrim_12" function="internal">
        <lane id=":antrim_12_0" index="0" speed="10.00" length="37.55" shape="2279.29,3453.76 2279.81,3463.19 2278.45,3475.31 2275.43,3485.33 2270.98,3488.45"/>
    </edge>
    <edge id=":antrim_13" function="internal">
        <lane id=":antrim_13_0" index="0" speed="9.65" length="37.66" shape="2279.29,3453.76 2275.66,3457.62 2265.21,3457.22 2253.20,3454.00 2244.91,3449.43"/>
    </edge>
    <edge id=":antrim_14" function="internal">
        <lane id=":antrim_14_0" index="0" speed="8.55" length="30.11" shape="2279.29,3453.76 2276.85,3458.13 2269.10,3458.99 2259.92,3457.01 2253.17,3452.88"/>
    </edge>
    <edge id=":antrim_15" function="internal">
        <lane id=":antrim_15_0" index="0" speed="7.84" length="25.98" shape="2279.29,3453.76 2277.15,3457.18 2270.42,3457.11 2262.55,3454.51 2257.01,3450.35"/>
    </edge>
    <edge id=":antrim_16" function="internal">
        <lane id=":antrim_16_0" index="0" speed="7.19" length="23.38" shape="2279.29,3453.76 2278.26,3457.86 2273.59,3457.23 2267.82,3453.21 2263.52,3447.19"/>
    </edge>
    <edge id=":antrim_17" function="internal">
        <lane id=":antrim_17_0" index="0" speed="5.78" length="14.87" shape="2279.29,3453.76 2277.96,3448.37 2277.36,3446.62 2277.50,3448.50 2278.39,3454.01"/>
    </edge>
    <edge id=":antrim_18" function="internal">
        <lane id=":antrim_18_0" index="0" speed="7.38" length="25.28" shape="2277.84,3454.17 2275.13,3445.17 2273.80,3442.29 2273.86,3445.53 2275.29,3454.88"/>
    </edge>
    <edge id=":antrim_19" function="internal">
        <lane id=":antrim_19_0" index="0" speed="6.27" length="17.48" shape="2277.84,3454.17 2275.96,3447.96 2274.99,3445.99 2274.95,3448.25 2275.82,3454.73"/>
    </edge>
    <edge id=":antrim_20" function="internal">
        <lane id=":antrim_20_0" index="0" speed="4.54" length="7.80" shape="2277.84,3454.17 2278.71,3456.84 2279.28,3457.66 2279.54,3456.61 2279.51,3453.70"/>
    </edge>
    <edge id=":antrim_21" function="internal">
        <lane id=":antrim_21_0" index="0" speed="10.00" length="47.43" shape="2277.84,3454.17 2281.73,3471.51 2282.42,3484.61 2279.90,3493.46 2274.18,3498.05"/>
    </edge>
    <edge id=":antrim_22" function="internal">
        <lane id=":antrim_22_0" index="0" speed="10.00" length="37.00" shape="2277.84,3454.17 2278.78,3463.51 2277.96,3475.52 2275.37,3485.42 2270.98,3488.45"/>
    </edge>
    <edge id=":antrim_23" function="internal">
        <lane id=":antrim_23_0" index="0" speed="9.41" length="36.36" shape="2277.84,3454.17 2274.59,3457.93 2264.62,3457.39 2253.02,3454.05 2244.91,3449.43"/>
    </edge>
    <edge id=":antrim_24" function="internal">
        <lane id=":antrim_24_0" index="0" speed="8.26" length="28.46" shape="2277.84,3454.17 2275.68,3458.19 2268.35,3458.85 2259.59,3456.84 2253.17,3452.88"/>
    </edge>
    <edge id=":antrim_25" function="internal">
        <lane id=":antrim_25_0" index="0" speed="7.56" length="24.37" shape="2277.84,3454.17 2275.96,3457.25 2269.66,3456.98 2262.24,3454.35 2257.01,3450.35"/>
    </edge>
    <edge id=":antrim_26" function="internal">
        <lane id=":antrim_26_0" index="0" speed="5.99" length="15.78" shape="2277.84,3454.17 2276.85,3455.39 2273.30,3453.37 2269.19,3449.70 2266.48,3445.96"/>
    </edge>
    <edge id=":antrim_27" function="internal">
        <lane id=":antrim_27_0" index="0" speed="5.71" length="13.70" shape="2270.14,3444.45 2272.69,3450.75 2274.40,3454.59 2275.27,3455.96 2275.29,3454.88"/>
    </edge>
    <edge id=":antrim_28" function="internal">
        <lane id=":antrim_28_0" index="0" speed="6.03" length="15.42" shape="2270.14,3444.45 2273.02,3451.49 2274.93,3455.55 2275.86,3456.63 2275.82,3454.73"/>
    </edge>
    <edge id=":antrim_29" function="internal">
        <lane id=":antrim_29_0" index="0" speed="7.53" length="24.24" shape="2270.14,3444.45 2274.54,3454.68 2277.56,3459.63 2279.22,3459.30 2279.51,3453.70"/>
    </edge>
    <edge id=":antrim_30" function="internal">
        <lane id=":antrim_30_0" index="0" speed="10.00" length="51.11" shape="2270.14,3444.45 2272.54,3455.65 2274.35,3472.34 2274.80,3487.72 2273.16,3495.02"/>
    </edge>
    <edge id=":antrim_31" function="internal">
        <lane id=":antrim_31_0" index="0" speed="10.00" length="42.05" shape="2270.14,3444.45 2272.59,3454.64 2274.38,3468.83 2274.55,3481.08 2272.11,3485.46"/>
    </edge>
    <edge id=":antrim_32" function="internal">
        <lane id=":antrim_32_0" index="0" speed="8.40" length="29.86" shape="2270.14,3444.45 2268.37,3449.45 2260.96,3452.23 2251.83,3452.36 2244.91,3449.43"/>
    </edge>
    <edge id=":antrim_33" function="internal">
        <lane id=":antrim_33_0" index="0" speed="7.23" length="22.22" shape="2270.14,3444.45 2269.04,3448.92 2264.06,3452.67 2257.88,3454.42 2253.17,3452.88"/>
    </edge>
    <edge id=":antrim_34" function="internal">
        <lane id=":antrim_34_0" index="0" speed="3.47" length="3.96" shape="2270.14,3444.45 2266.48,3445.96"/>
    </edge>
    <edge id=":antrim_35" function="internal">
        <lane id=":antrim_35_0" index="0" speed="6.94" length="21.03" shape="2270.14,3444.45 2269.07,3450.85 2266.53,3453.97 2262.51,3453.80 2257.01,3450.35"/>
    </edge>
    <edge id=":antrim_36" function="internal">
        <lane id=":antrim_36_0" index="0" speed="6.16" length="16.18" shape="2269.13,3444.87 2272.32,3452.15 2274.41,3456.25 2275.40,3457.16 2275.29,3454.88"/>
    </edge>
    <edge id=":antrim_37" function="internal">
        <lane id=":antrim_37_0" index="0" speed="6.42" length="17.66" shape="2269.13,3444.87 2272.61,3452.75 2274.89,3457.02 2275.96,3457.68 2275.82,3454.73"/>
    </edge>
    <edge id=":antrim_38" function="internal">
        <lane id=":antrim_38_0" index="0" speed="9.01" length="35.26" shape="2269.13,3444.87 2275.54,3458.57 2279.94,3464.46 2282.31,3462.54 2282.67,3452.81"/>
    </edge>
    <edge id=":antrim_39" function="internal">
        <lane id=":antrim_39_0" index="0" speed="10.00" length="50.78" shape="2269.13,3444.87 2271.77,3455.97 2273.93,3472.51 2274.69,3487.77 2273.16,3495.02"/>
    </edge>
    <edge id=":antrim_40" function="internal">
        <lane id=":antrim_40_0" index="0" speed="10.00" length="41.71" shape="2269.13,3444.87 2271.83,3454.96 2273.98,3469.02 2274.45,3481.15 2272.11,3485.46"/>
    </edge>
    <edge id=":antrim_41" function="internal">
        <lane id=":antrim_41_0" index="0" speed="8.20" length="28.62" shape="2269.13,3444.87 2267.50,3449.60 2260.38,3452.19 2251.57,3452.26 2244.91,3449.43"/>
    </edge>
    <edge id=":antrim_42" function="internal">
        <lane id=":antrim_42_0" index="0" speed="7.01" length="20.96" shape="2269.13,3444.87 2268.15,3449.07 2263.46,3452.63 2257.62,3454.31 2253.17,3452.88"/>
    </edge>
    <edge id=":antrim_43" function="internal">
        <lane id=":antrim_43_0" index="0" speed="6.06" length="15.68" shape="2269.13,3444.87 2268.32,3447.96 2264.67,3450.51 2260.22,3451.60 2257.01,3450.35"/>
    </edge>
    <edge id=":antrim_44" function="internal">
        <lane id=":antrim_44_0" index="0" speed="3.52" length="4.19" shape="2269.13,3444.87 2268.88,3446.14 2268.35,3446.74 2267.55,3446.69 2266.48,3445.96"/>
    </edge>
    <edge id=":antrim_45" function="internal">
        <lane id=":antrim_45_0" index="0" speed="8.36" length="32.70" shape="2242.27,3452.74 2251.97,3460.00 2255.65,3461.86 2253.29,3458.34 2244.91,3449.43"/>
    </edge>
    <edge id=":antrim_46" function="internal">
        <lane id=":antrim_46_0" index="0" speed="9.07" length="37.88" shape="2242.27,3452.74 2255.06,3462.22 2261.13,3465.40 2260.50,3462.29 2253.17,3452.88"/>
    </edge>
    <edge id=":antrim_47" function="internal">
        <lane id=":antrim_47_0" index="0" speed="9.89" length="43.84" shape="2242.27,3452.74 2256.80,3463.24 2264.09,3466.34 2264.16,3462.04 2257.01,3450.35"/>
    </edge>
    <edge id=":antrim_48" function="internal">
        <lane id=":antrim_48_0" index="0" speed="9.64" length="38.11" shape="2242.27,3452.74 2254.55,3461.18 2261.69,3463.28 2263.69,3459.02 2260.56,3448.41"/>
    </edge>
    <edge id=":antrim_49" function="internal">
        <lane id=":antrim_49_0" index="0" speed="10.00" length="53.04" shape="2242.27,3452.74 2260.08,3464.99 2272.03,3469.28 2278.13,3465.62 2278.39,3454.01"/>
    </edge>
    <edge id=":antrim_50" function="internal">
        <lane id=":antrim_50_0" index="0" speed="10.00" length="53.45" shape="2242.27,3452.74 2260.14,3465.00 2272.20,3469.27 2278.46,3465.56 2278.92,3453.86"/>
    </edge>
    <edge id=":antrim_51" function="internal">
        <lane id=":antrim_51_0" index="0" speed="10.00" length="56.37" shape="2242.27,3452.74 2260.53,3465.06 2273.35,3469.18 2280.73,3465.10 2282.67,3452.81"/>
    </edge>
    <edge id=":antrim_52" function="internal">
        <lane id=":antrim_52_0" index="0" speed="10.00" length="58.11" shape="2242.27,3452.74 2258.66,3466.27 2271.36,3478.90 2277.23,3489.02 2273.16,3495.02"/>
    </edge>
    <edge id=":antrim_53" function="internal">
        <lane id=":antrim_53_0" index="0" speed="10.00" length="44.78" shape="2242.27,3452.74 2250.87,3460.54 2262.43,3472.14 2271.37,3482.23 2272.11,3485.46"/>
    </edge>
    <edge id=":antrim_54" function="internal">
        <lane id=":antrim_54_0" index="0" speed="10.00" length="44.47" shape="2273.24,3482.47 2273.92,3481.33 2269.42,3475.44 2259.75,3464.81 2244.91,3449.43"/>
    </edge>
    <edge id=":antrim_55" function="internal">
        <lane id=":antrim_55_0" index="0" speed="9.59" length="37.86" shape="2273.24,3482.47 2274.81,3481.68 2271.98,3476.49 2264.77,3466.89 2253.17,3452.88"/>
    </edge>
    <edge id=":antrim_56" function="internal">
        <lane id=":antrim_56_0" index="0" speed="9.89" length="38.77" shape="2273.24,3482.47 2275.41,3481.66 2273.42,3476.04 2267.29,3465.60 2257.01,3450.35"/>
    </edge>
    <edge id=":antrim_57" function="internal">
        <lane id=":antrim_57_0" index="0" speed="10.00" length="36.42" shape="2273.24,3482.47 2273.07,3480.57 2270.90,3474.27 2266.73,3463.54 2260.56,3448.41"/>
    </edge>
    <edge id=":antrim_58" function="internal">
        <lane id=":antrim_58_0" index="0" speed="10.00" length="33.18" shape="2273.24,3482.47 2277.58,3482.21 2279.88,3477.38 2280.15,3467.98 2278.39,3454.01"/>
    </edge>
    <edge id=":antrim_59" function="internal">
        <lane id=":antrim_59_0" index="0" speed="10.00" length="33.40" shape="2273.24,3482.47 2277.63,3482.20 2280.04,3477.35 2280.47,3467.90 2278.92,3453.86"/>
    </edge>
    <edge id=":antrim_60" function="internal">
        <lane id=":antrim_60_0" index="0" speed="10.00" length="35.14" shape="2273.24,3482.47 2277.97,3482.18 2281.12,3477.14 2282.69,3467.35 2282.67,3452.81"/>
    </edge>
    <edge id=":antrim_61" function="internal">
        <lane id=":antrim_61_0" index="0" speed="7.76" length="22.25" shape="2273.24,3482.47 2279.80,3485.73 2281.97,3488.91 2279.76,3492.01 2273.16,3495.02"/>
    </edge>
    <edge id=":antrim_62" function="internal">
        <lane id=":antrim_62_0" index="0" speed="3.65" length="4.67" shape="2273.24,3482.47 2274.08,3483.64 2274.17,3484.53 2273.51,3485.14 2272.11,3485.46"/>
    </edge>
    <edge id=":athlone_0" function="internal">
        <lane id=":athlone_0_0" index="0" speed="7.65" length="22.97" shape="1260.02,1992.21 1257.80,1981.72 1255.72,1975.53 1253.78,1973.63 1251.97,1976.03"/>
    </edge>
    <edge id=":athlone_1" function="internal">
        <lane id=":athlone_1_0" index="0" speed="8.12" length="22.69" shape="1260.02,1992.21 1257.85,1982.45 1255.57,1976.41 1253.16,1974.10 1250.62,1975.52"/>
    </edge>
    <edge id=":athlone_2" function="internal">
        <lane id=":athlone_2_0" index="0" speed="10.00" length="62.37" shape="1260.02,1992.21 1255.49,1982.87 1245.85,1966.61 1235.04,1949.95 1226.98,1939.46"/>
    </edge>
    <edge id=":athlone_3" function="internal">
        <lane id=":athlone_3_0" index="0" speed="10.00" length="42.48" shape="1260.02,1992.21 1258.86,1984.24 1257.22,1971.13 1255.83,1958.01 1255.44,1950.00"/>
    </edge>
    <edge id=":athlone_4" function="internal">
        <lane id=":athlone_4_0" index="0" speed="10.00" length="43.13" shape="1260.02,1992.21 1259.25,1984.06 1258.60,1970.57 1258.47,1957.15 1259.32,1949.18"/>
    </edge>
    <edge id=":athlone_5" function="internal">
        <lane id=":athlone_5_0" index="0" speed="10.00" length="51.93" shape="1260.02,1992.21 1258.79,1977.32 1260.90,1964.58 1266.34,1953.99 1275.10,1945.54"/>
    </edge>
    <edge id=":athlone_6" function="internal">
        <lane id=":athlone_6_0" index="0" speed="10.00" length="51.50" shape="1260.02,1992.21 1259.07,1977.47 1262.06,1965.43 1268.98,1956.10 1279.83,1949.48"/>
    </edge>
    <edge id=":athlone_7" function="internal">
        <lane id=":athlone_7_0" index="0" speed="10.00" length="41.40" shape="1260.02,1992.21 1258.55,1977.81 1260.04,1967.18 1264.49,1960.32 1271.89,1957.24"/>
    </edge>
    <edge id=":athlone_8" function="internal">
        <lane id=":athlone_8_0" index="0" speed="6.84" length="19.51" shape="1260.02,1992.21 1260.97,1987.32 1264.73,1984.59 1269.48,1984.58 1273.44,1987.85"/>
    </edge>
    <edge id=":athlone_9" function="internal">
        <lane id=":athlone_9_0" index="0" speed="3.70" length="4.86" shape="1260.02,1992.21 1260.61,1990.83 1261.35,1990.27 1262.24,1990.53 1263.29,1991.61"/>
    </edge>
    <edge id=":athlone_10" function="internal">
        <lane id=":athlone_10_0" index="0" speed="5.89" length="13.97" shape="1270.64,1989.40 1267.90,1985.23 1266.28,1984.11 1265.79,1986.04 1266.43,1991.02"/>
    </edge>
    <edge id=":athlone_11" function="internal">
        <lane id=":athlone_11_0" index="0" speed="9.10" length="28.33" shape="1270.64,1989.40 1264.10,1979.30 1258.80,1973.71 1254.76,1972.62 1251.97,1976.03"/>
    </edge>
    <edge id=":athlone_12" function="internal">
        <lane id=":athlone_12_0" index="0" speed="9.83" length="28.23" shape="1270.64,1989.40 1264.47,1980.06 1259.08,1974.63 1254.46,1973.12 1250.62,1975.52"/>
    </edge>
    <edge id=":athlone_13" function="internal">
        <lane id=":athlone_13_0" index="0" speed="10.00" length="66.36" shape="1270.64,1989.40 1263.77,1980.76 1250.56,1965.43 1236.47,1949.60 1226.98,1939.46"/>
    </edge>
    <edge id=":athlone_14" function="internal">
        <lane id=":athlone_14_0" index="0" speed="10.00" length="42.34" shape="1270.64,1989.40 1267.14,1982.12 1261.92,1969.95 1257.26,1957.65 1255.44,1950.00"/>
    </edge>
    <edge id=":athlone_15" function="internal">
        <lane id=":athlone_15_0" index="0" speed="10.00" length="42.90" shape="1270.64,1989.40 1263.77,1976.28 1259.60,1965.20 1258.11,1956.17 1259.32,1949.18"/>
    </edge>
    <edge id=":athlone_16" function="internal">
        <lane id=":athlone_16_0" index="0" speed="10.00" length="49.16" shape="1270.64,1989.40 1264.63,1975.84 1263.38,1964.01 1266.86,1953.91 1275.10,1945.54"/>
    </edge>
    <edge id=":athlone_17" function="internal">
        <lane id=":athlone_17_0" index="0" speed="10.00" length="42.77" shape="1270.64,1989.40 1269.04,1980.40 1270.48,1967.83 1274.30,1956.06 1279.83,1949.48"/>
    </edge>
    <edge id=":athlone_18" function="internal">
        <lane id=":athlone_18_0" index="0" speed="10.00" length="34.34" shape="1270.64,1989.40 1267.88,1981.28 1266.72,1970.83 1267.84,1961.62 1271.89,1957.24"/>
    </edge>
    <edge id=":athlone_19" function="internal">
        <lane id=":athlone_19_0" index="0" speed="3.65" length="4.67" shape="1270.64,1989.40 1270.76,1987.97 1271.26,1987.23 1272.16,1987.19 1273.44,1987.85"/>
    </edge>
    <edge id=":athlone_20" function="internal">
        <lane id=":athlone_20_0" index="0" speed="6.38" length="16.48" shape="1271.89,1988.75 1268.45,1984.06 1266.40,1982.87 1265.72,1985.20 1266.43,1991.02"/>
    </edge>
    <edge id=":athlone_21" function="internal">
        <lane id=":athlone_21_0" index="0" speed="9.28" length="28.93" shape="1271.89,1988.75 1264.82,1978.87 1259.15,1973.46 1254.86,1972.51 1251.97,1976.03"/>
    </edge>
    <edge id=":athlone_22" function="internal">
        <lane id=":athlone_22_0" index="0" speed="10.00" length="28.87" shape="1271.89,1988.75 1265.24,1979.61 1259.47,1974.36 1254.60,1973.00 1250.62,1975.52"/>
    </edge>
    <edge id=":athlone_23" function="internal">
        <lane id=":athlone_23_0" index="0" speed="10.00" length="66.93" shape="1271.89,1988.75 1265.10,1979.90 1252.24,1964.01 1238.55,1947.60 1229.24,1937.19"/>
    </edge>
    <edge id=":athlone_24" function="internal">
        <lane id=":athlone_24_0" index="0" speed="10.00" length="42.21" shape="1271.89,1988.75 1268.12,1981.62 1262.48,1969.66 1257.43,1957.56 1255.44,1950.00"/>
    </edge>
    <edge id=":athlone_25" function="internal">
        <lane id=":athlone_25_0" index="0" speed="10.00" length="42.74" shape="1271.89,1988.75 1264.47,1975.93 1259.90,1965.06 1258.18,1956.14 1259.32,1949.18"/>
    </edge>
    <edge id=":athlone_26" function="internal">
        <lane id=":athlone_26_0" index="0" speed="10.00" length="48.72" shape="1271.89,1988.75 1265.32,1975.48 1263.66,1963.86 1266.92,1953.88 1275.10,1945.54"/>
    </edge>
    <edge id=":athlone_27" function="internal">
        <lane id=":athlone_27_0" index="0" speed="10.00" length="41.97" shape="1271.89,1988.75 1269.95,1979.93 1270.98,1967.57 1274.45,1955.99 1279.83,1949.48"/>
    </edge>
    <edge id=":athlone_28" function="internal">
        <lane id=":athlone_28_0" index="0" speed="10.00" length="33.83" shape="1271.89,1988.75 1268.76,1980.82 1267.14,1970.59 1267.90,1961.56 1271.89,1957.24"/>
    </edge>
    <edge id=":athlone_29" function="internal">
        <lane id=":athlone_29_0" index="0" speed="9.11" length="40.50" shape="1271.89,1988.75 1280.18,2001.47 1283.20,2005.56 1280.95,2001.02 1273.44,1987.85"/>
    </edge>
    <edge id=":athlone_30" function="internal">
        <lane id=":athlone_30_0" index="0" speed="5.42" length="12.07" shape="1277.65,1947.66 1274.34,1950.21 1273.61,1951.36 1275.43,1951.12 1279.83,1949.48"/>
    </edge>
    <edge id=":athlone_31" function="internal">
        <lane id=":athlone_31_0" index="0" speed="6.58" length="16.96" shape="1277.65,1947.66 1271.51,1952.34 1268.51,1955.50 1268.63,1957.13 1271.89,1957.24"/>
    </edge>
    <edge id=":athlone_32" function="internal">
        <lane id=":athlone_32_0" index="0" speed="10.00" length="45.06" shape="1277.65,1947.66 1270.06,1955.35 1266.83,1964.61 1267.96,1975.44 1273.44,1987.85"/>
    </edge>
    <edge id=":athlone_33" function="internal">
        <lane id=":athlone_33_0" index="0" speed="10.00" length="47.29" shape="1277.65,1947.66 1270.57,1954.88 1266.34,1964.51 1264.96,1976.56 1266.43,1991.02"/>
    </edge>
    <edge id=":athlone_34" function="internal">
        <lane id=":athlone_34_0" index="0" speed="10.00" length="38.36" shape="1277.65,1947.66 1272.16,1952.66 1263.95,1961.18 1256.16,1970.03 1251.97,1976.03"/>
    </edge>
    <edge id=":athlone_35" function="internal">
        <lane id=":athlone_35_0" index="0" speed="10.00" length="38.85" shape="1277.65,1947.66 1272.57,1952.13 1264.93,1959.73 1256.89,1968.26 1250.62,1975.52"/>
    </edge>
    <edge id=":athlone_36" function="internal">
        <lane id=":athlone_36_0" index="0" speed="10.00" length="54.19" shape="1277.65,1947.66 1266.44,1952.79 1254.64,1952.75 1242.24,1947.55 1229.24,1937.19"/>
    </edge>
    <edge id=":athlone_37" function="internal">
        <lane id=":athlone_37_0" index="0" speed="8.51" length="25.00" shape="1277.65,1947.66 1271.52,1950.85 1264.01,1953.13 1257.77,1953.26 1255.44,1950.00"/>
    </edge>
    <edge id=":athlone_38" function="internal">
        <lane id=":athlone_38_0" index="0" speed="7.32" length="20.84" shape="1277.65,1947.66 1272.33,1950.19 1265.70,1951.86 1260.46,1951.82 1259.32,1949.18"/>
    </edge>
    <edge id=":athlone_39" function="internal">
        <lane id=":athlone_39_0" index="0" speed="3.69" length="4.84" shape="1277.65,1947.66 1276.22,1948.09 1275.31,1947.88 1274.94,1947.03 1275.10,1945.54"/>
    </edge>
    <edge id=":athlone_40" function="internal">
        <lane id=":athlone_40_0" index="0" speed="4.25" length="6.29" shape="1273.52,1944.23 1272.37,1946.11 1272.25,1946.95 1273.16,1946.77 1275.10,1945.54"/>
    </edge>
    <edge id=":athlone_41" function="internal">
        <lane id=":athlone_41_0" index="0" speed="6.58" length="16.32" shape="1273.52,1944.23 1271.04,1948.68 1271.27,1951.03 1274.20,1951.30 1279.83,1949.48"/>
    </edge>
    <edge id=":athlone_42" function="internal">
        <lane id=":athlone_42_0" index="0" speed="7.08" length="17.07" shape="1273.52,1944.23 1269.73,1950.33 1268.20,1954.54 1268.92,1956.84 1271.89,1957.24"/>
    </edge>
    <edge id=":athlone_43" function="internal">
        <lane id=":athlone_43_0" index="0" speed="10.00" length="46.24" shape="1273.52,1944.23 1268.32,1954.42 1266.57,1965.08 1268.28,1976.23 1273.44,1987.85"/>
    </edge>
    <edge id=":athlone_44" function="internal">
        <lane id=":athlone_44_0" index="0" speed="10.00" length="48.54" shape="1273.52,1944.23 1268.41,1953.85 1265.53,1964.86 1264.87,1977.25 1266.43,1991.02"/>
    </edge>
    <edge id=":athlone_45" function="internal">
        <lane id=":athlone_45_0" index="0" speed="10.00" length="38.89" shape="1271.05,1942.17 1265.91,1950.27 1260.04,1960.43 1254.90,1969.93 1251.97,1976.03"/>
    </edge>
    <edge id=":athlone_46" function="internal">
        <lane id=":athlone_46_0" index="0" speed="10.00" length="39.85" shape="1271.05,1942.17 1247.49,1974.32"/>
    </edge>
    <edge id=":athlone_47" function="internal">
        <lane id=":athlone_47_0" index="0" speed="10.00" length="50.42" shape="1271.05,1942.17 1261.67,1951.17 1251.80,1952.45 1241.11,1947.35 1229.24,1937.19"/>
    </edge>
    <edge id=":athlone_48" function="internal">
        <lane id=":athlone_48_0" index="0" speed="7.09" length="19.74" shape="1271.05,1942.17 1267.13,1946.23 1261.79,1950.05 1257.18,1951.90 1255.44,1950.00"/>
    </edge>
    <edge id=":athlone_49" function="internal">
        <lane id=":athlone_49_0" index="0" speed="6.74" length="19.95" shape="1271.05,1942.17 1270.75,1948.32 1268.69,1951.54 1264.88,1951.83 1259.32,1949.18"/>
    </edge>
    <edge id=":athlone_50" function="internal">
        <lane id=":athlone_50_0" index="0" speed="2.90" length="1.87" shape="1258.72,1949.31 1258.70,1949.91 1258.80,1950.09 1259.00,1949.85 1259.32,1949.18"/>
    </edge>
    <edge id=":athlone_51" function="internal">
        <lane id=":athlone_51_0" index="0" speed="7.77" length="20.52" shape="1258.72,1949.31 1259.45,1952.21 1262.42,1952.55 1267.64,1950.33 1275.10,1945.54"/>
    </edge>
    <edge id=":athlone_52" function="internal">
        <lane id=":athlone_52_0" index="0" speed="8.93" length="24.56" shape="1258.72,1949.31 1259.71,1952.77 1263.56,1953.95 1270.27,1952.86 1279.83,1949.48"/>
    </edge>
    <edge id=":athlone_53" function="internal">
        <lane id=":athlone_53_0" index="0" speed="8.36" length="18.33" shape="1258.72,1949.31 1259.19,1953.49 1261.55,1956.21 1265.78,1957.46 1271.89,1957.24"/>
    </edge>
    <edge id=":athlone_54" function="internal">
        <lane id=":athlone_54_0" index="0" speed="10.00" length="41.36" shape="1258.72,1949.31 1260.47,1956.82 1264.96,1968.82 1270.01,1980.70 1273.44,1987.85"/>
    </edge>
    <edge id=":athlone_55" function="internal">
        <lane id=":athlone_55_0" index="0" speed="10.00" length="42.57" shape="1258.72,1949.31 1258.98,1956.63 1260.14,1968.64 1261.74,1981.55 1263.29,1991.61"/>
    </edge>
    <edge id=":athlone_56" function="internal">
        <lane id=":athlone_56_0" index="0" speed="10.00" length="27.59" shape="1258.72,1949.31 1257.72,1954.93 1255.84,1962.79 1253.71,1970.59 1251.97,1976.03"/>
    </edge>
    <edge id=":athlone_57" function="internal">
        <lane id=":athlone_57_0" index="0" speed="10.00" length="27.64" shape="1258.72,1949.31 1257.64,1954.21 1255.26,1960.74 1251.80,1967.80 1247.49,1974.32"/>
    </edge>
    <edge id=":athlone_58" function="internal">
        <lane id=":athlone_58_0" index="0" speed="9.86" length="33.51" shape="1258.72,1949.31 1254.76,1950.96 1246.14,1947.95 1236.45,1942.59 1229.24,1937.19"/>
    </edge>
    <edge id=":athlone_59" function="internal">
        <lane id=":athlone_59_0" index="0" speed="3.71" length="4.90" shape="1258.72,1949.31 1258.16,1950.71 1257.43,1951.30 1256.52,1951.06 1255.44,1950.00"/>
    </edge>
    <edge id=":athlone_60" function="internal">
        <lane id=":athlone_60_0" index="0" speed="10.00" length="0.89" shape="1255.18,1950.06 1255.26,1950.36 1255.34,1950.45 1255.40,1950.33 1255.44,1950.00"/>
    </edge>
    <edge id=":athlone_61" function="internal">
        <lane id=":athlone_61_0" index="0" speed="4.82" length="7.70" shape="1255.18,1950.06 1255.92,1952.17 1256.86,1952.72 1258.00,1951.73 1259.32,1949.18"/>
    </edge>
    <edge id=":athlone_62" function="internal">
        <lane id=":athlone_62_0" index="0" speed="8.93" length="23.35" shape="1255.18,1950.06 1257.12,1952.87 1261.09,1953.06 1267.08,1950.61 1275.10,1945.54"/>
    </edge>
    <edge id=":athlone_63" function="internal">
        <lane id=":athlone_63_0" index="0" speed="10.00" length="27.14" shape="1255.18,1950.06 1257.46,1953.30 1262.32,1954.28 1269.78,1953.01 1279.83,1949.48"/>
    </edge>
    <edge id=":athlone_64" function="internal">
        <lane id=":athlone_64_0" index="0" speed="9.74" length="20.12" shape="1255.18,1950.06 1257.00,1953.94 1260.39,1956.43 1265.35,1957.53 1271.89,1957.24"/>
    </edge>
    <edge id=":athlone_65" function="internal">
        <lane id=":athlone_65_0" index="0" speed="10.00" length="42.00" shape="1255.18,1950.06 1258.14,1957.41 1263.78,1969.16 1269.68,1980.81 1273.44,1987.85"/>
    </edge>
    <edge id=":athlone_66" function="internal">
        <lane id=":athlone_66_0" index="0" speed="10.00" length="42.33" shape="1255.18,1950.06 1263.29,1991.61"/>
    </edge>
    <edge id=":athlone_67" function="internal">
        <lane id=":athlone_67_0" index="0" speed="10.00" length="26.30" shape="1255.18,1950.06 1255.39,1955.52 1254.66,1963.12 1253.38,1970.69 1251.97,1976.03"/>
    </edge>
    <edge id=":athlone_68" function="internal">
        <lane id=":athlone_68_0" index="0" speed="10.00" length="26.28" shape="1255.18,1950.06 1255.65,1955.83 1254.53,1961.79 1251.81,1967.95 1247.49,1974.32"/>
    </edge>
    <edge id=":athlone_69" function="internal">
        <lane id=":athlone_69_0" index="0" speed="8.86" length="31.04" shape="1255.18,1950.06 1252.71,1952.00 1245.21,1948.69 1236.21,1942.85 1229.24,1937.19"/>
    </edge>