<?xml version="1.0" encoding="UTF-8"?>

<!-- generated on 2025-02-19 13:05:04 by Eclipse SUMO netconvert Version 1.18.0
<configuration xmlns:xsi="http://www.w3.org/2001/XMLSchema-instance" xsi:noNamespaceSchemaLocation="http://sumo.dlr.de/xsd/netconvertConfiguration.xsd">

    <input>
        <node-files value="nod.xml"/>
        <edge-files value="edge_xmls/09999.xml"/>
    </input>

    <output>
        <output-file value="networks/09999.net.xml"/>
    </output>

</configuration>
-->

<net version="1.16" junctionCornerDetail="5" limitTurnSpeed="5.50" xmlns:xsi="http://www.w3.org/2001/XMLSchema-instance" xsi:noNamespaceSchemaLocation="http://sumo.dlr.de/xsd/net_file.xsd">

    <location netOffset="-682.00,4368.00" convBoundary="0.00,0.00,2498.00,3881.00" origBoundary="682.00,-4368.00,3180.00,-487.00" projParameter="!"/>

    <edge id=":antrim_0" function="internal">
        <lane id=":antrim_0_0" index="0" speed="8.14" length="31.62" shape="2288.12,3464.99 2288.14,3456.62 2287.68,3456.08 2286.74,3463.37 2285.31,3478.49"/>
    </edge>
    <edge id=":antrim_1" function="internal">
        <lane id=":antrim_1_0" index="0" speed="10.00" length="41.64" shape="2288.12,3464.99 2286.77,3476.55 2283.26,3486.28 2277.59,3494.20 2269.75,3500.28"/>
    </edge>
    <edge id=":antrim_2" function="internal">
        <lane id=":antrim_2_0" index="0" speed="10.00" length="41.53" shape="2288.12,3464.99 2283.37,3471.12 2272.48,3475.70 2260.08,3478.03 2250.76,3477.39"/>
    </edge>
    <edge id=":antrim_3" function="internal">
        <lane id=":antrim_3_0" index="0" speed="10.00" length="39.31" shape="2288.12,3464.99 2283.54,3470.63 2273.07,3474.08 2261.16,3475.09 2252.24,3473.45"/>
    </edge>
    <edge id=":antrim_4" function="internal">
        <lane id=":antrim_4_0" index="0" speed="10.00" length="39.15" shape="2288.12,3464.99 2283.56,3470.59 2273.12,3473.95 2261.24,3474.86 2252.36,3473.14"/>
    </edge>
    <edge id=":antrim_5" function="internal">
        <lane id=":antrim_5_0" index="0" speed="10.00" length="35.78" shape="2288.12,3464.99 2283.90,3469.83 2274.29,3471.40 2263.40,3470.28 2255.35,3467.04"/>
    </edge>
    <edge id=":antrim_6" function="internal">
        <lane id=":antrim_6_0" index="0" speed="8.80" length="30.08" shape="2288.12,3464.99 2284.78,3468.55 2277.25,3467.27 2268.84,3462.98 2262.84,3457.51"/>
    </edge>
    <edge id=":antrim_7" function="internal">
        <lane id=":antrim_7_0" index="0" speed="8.16" length="27.82" shape="2288.12,3464.99 2285.37,3467.27 2279.25,3463.76 2272.58,3457.31 2268.14,3450.76"/>
    </edge>
    <edge id=":antrim_8" function="internal">
        <lane id=":antrim_8_0" index="0" speed="8.11" length="27.73" shape="2288.12,3464.99 2285.45,3467.14 2279.54,3463.34 2273.09,3456.59 2268.84,3449.87"/>
    </edge>
    <edge id=":antrim_9" function="internal">
        <lane id=":antrim_9_0" index="0" speed="7.70" length="25.78" shape="2288.12,3464.99 2285.94,3466.58 2281.15,3462.09 2276.01,3454.78 2272.76,3447.93"/>
    </edge>
    <edge id=":antrim_10" function="internal">
        <lane id=":antrim_10_0" index="0" speed="7.51" length="24.84" shape="2288.12,3464.99 2286.16,3466.38 2281.89,3461.69 2277.33,3454.26 2274.51,3447.44"/>
    </edge>
    <edge id=":antrim_11" function="internal">
        <lane id=":antrim_11_0" index="0" speed="7.46" length="25.03" shape="2288.12,3464.99 2286.03,3466.45 2281.50,3461.88 2276.77,3454.56 2274.07,3447.74"/>
    </edge>
    <edge id=":antrim_12" function="internal">
        <lane id=":antrim_12_0" index="0" speed="7.39" length="24.69" shape="2288.12,3464.99 2286.11,3466.37 2281.78,3461.74 2277.26,3454.37 2274.71,3447.57"/>
    </edge>
    <edge id=":antrim_13" function="internal">
        <lane id=":antrim_13_0" index="0" speed="8.03" length="30.04" shape="2288.12,3464.99 2278.98,3463.40 2274.55,3459.73 2274.83,3453.99 2279.81,3446.17"/>
    </edge>
    <edge id=":antrim_14" function="internal">
        <lane id=":antrim_14_0" index="0" speed="9.89" length="47.67" shape="2277.74,3446.53 2272.21,3429.58 2269.83,3424.08 2270.60,3430.03 2274.51,3447.44"/>
    </edge>
    <edge id=":antrim_15" function="internal">
        <lane id=":antrim_15_0" index="0" speed="7.92" length="29.08" shape="2277.74,3446.53 2274.30,3436.35 2272.54,3433.16 2272.47,3436.96 2274.07,3447.74"/>
    </edge>
    <edge id=":antrim_16" function="internal">
        <lane id=":antrim_16_0" index="0" speed="6.92" length="21.62" shape="2277.74,3446.53 2275.17,3439.01 2273.81,3436.67 2273.66,3439.53 2274.71,3447.57"/>
    </edge>
    <edge id=":antrim_17" function="internal">
        <lane id=":antrim_17_0" index="0" speed="4.06" length="5.90" shape="2277.74,3446.53 2277.04,3444.54 2276.63,3443.96 2276.51,3444.79 2276.68,3447.03"/>
    </edge>
    <edge id=":antrim_18" function="internal">
        <lane id=":antrim_18_0" index="0" speed="8.78" length="32.93" shape="2277.74,3446.53 2281.25,3458.24 2283.69,3467.47 2285.04,3474.22 2285.31,3478.49"/>
    </edge>
    <edge id=":antrim_19" function="internal">
        <lane id=":antrim_19_0" index="0" speed="10.00" length="58.56" shape="2277.74,3446.53 2282.12,3465.48 2282.25,3480.75 2278.13,3492.35 2269.75,3500.28"/>
    </edge>
    <edge id=":antrim_20" function="internal">
        <lane id=":antrim_20_0" index="0" speed="10.00" length="41.12" shape="2274.66,3447.40 2273.21,3456.11 2266.82,3466.75 2258.37,3475.22 2250.76,3477.39"/>
    </edge>
    <edge id=":antrim_21" function="internal">
        <lane id=":antrim_21_0" index="0" speed="10.00" length="37.56" shape="2274.66,3447.40 2273.39,3455.62 2267.41,3465.13 2259.46,3472.29 2252.24,3473.45"/>
    </edge>
    <edge id=":antrim_22" function="internal">
        <lane id=":antrim_22_0" index="0" speed="10.00" length="37.28" shape="2274.66,3447.40 2273.40,3455.58 2267.46,3465.00 2259.54,3472.06 2252.36,3473.14"/>
    </edge>
    <edge id=":antrim_23" function="internal">
        <lane id=":antrim_23_0" index="0" speed="8.98" length="31.59" shape="2274.66,3447.40 2273.74,3454.82 2268.62,3462.45 2261.69,3467.48 2255.35,3467.04"/>
    </edge>
    <edge id=":antrim_24" function="internal">
        <lane id=":antrim_24_0" index="0" speed="6.56" length="18.21" shape="2274.66,3447.40 2273.87,3451.67 2270.42,3455.92 2266.13,3458.44 2262.84,3457.51"/>
    </edge>
    <edge id=":antrim_25" function="internal">
        <lane id=":antrim_25_0" index="0" speed="4.64" length="8.67" shape="2274.66,3447.40 2274.08,3449.23 2272.03,3450.80 2269.66,3451.52 2268.14,3450.76"/>
    </edge>
    <edge id=":antrim_26" function="internal">
        <lane id=":antrim_26_0" index="0" speed="10.00" length="69.28" shape="2274.66,3447.40 2266.78,3422.64 2263.84,3414.48 2265.83,3422.91 2272.76,3447.93"/>
    </edge>
    <edge id=":antrim_27" function="internal">
        <lane id=":antrim_27_0" index="0" speed="4.74" length="9.23" shape="2274.66,3447.40 2274.13,3450.20 2272.99,3451.54 2271.22,3451.44 2268.84,3449.87"/>
    </edge>
    <edge id=":antrim_28" function="internal">
        <lane id=":antrim_28_0" index="0" speed="4.77" length="8.96" shape="2267.00,3452.22 2268.83,3454.75 2269.63,3455.34 2269.40,3454.02 2268.14,3450.76"/>
    </edge>
    <edge id=":antrim_29" function="internal">
        <lane id=":antrim_29_0" index="0" speed="5.57" length="12.89" shape="2267.00,3452.22 2269.62,3455.79 2270.80,3456.59 2270.54,3454.62 2268.84,3449.87"/>
    </edge>
    <edge id=":antrim_30" function="internal">
        <lane id=":antrim_30_0" index="0" speed="7.38" length="23.32" shape="2267.00,3452.22 2271.85,3458.62 2274.43,3460.04 2274.73,3456.48 2272.76,3447.93"/>
    </edge>
    <edge id=":antrim_31" function="internal">
        <lane id=":antrim_31_0" index="0" speed="7.84" length="26.11" shape="2267.00,3452.22 2272.46,3459.34 2275.54,3460.91 2276.22,3456.95 2274.51,3447.44"/>
    </edge>
    <edge id=":antrim_32" function="internal">
        <lane id=":antrim_32_0" index="0" speed="7.21" length="21.26" shape="2267.00,3452.22 2271.38,3457.79 2274.02,3458.89 2274.91,3455.55 2274.07,3447.74"/>
    </edge>
    <edge id=":antrim_33" function="internal">
        <lane id=":antrim_33_0" index="0" speed="7.39" length="22.25" shape="2267.00,3452.22 2271.59,3458.03 2274.40,3459.19 2275.44,3455.70 2274.71,3447.57"/>
    </edge>
    <edge id=":antrim_34" function="internal">
        <lane id=":antrim_34_0" index="0" speed="7.87" length="25.05" shape="2267.00,3452.22 2272.17,3458.67 2275.50,3459.95 2277.01,3456.07 2276.68,3447.03"/>
    </edge>
    <edge id=":antrim_35" function="internal">
        <lane id=":antrim_35_0" index="0" speed="9.26" length="32.56" shape="2264.92,3454.86 2273.65,3467.40 2279.96,3475.52 2283.85,3479.21 2285.31,3478.49"/>
    </edge>
    <edge id=":antrim_36" function="internal">
        <lane id=":antrim_36_0" index="0" speed="10.00" length="46.66" shape="2264.92,3454.86 2268.53,3464.63 2271.23,3479.16 2271.98,3492.90 2269.75,3500.28"/>
    </edge>
    <edge id=":antrim_37" function="internal">
        <lane id=":antrim_37_0" index="0" speed="8.89" length="30.73" shape="2264.92,3454.86 2265.96,3461.93 2262.81,3470.06 2257.17,3476.23 2250.76,3477.39"/>
    </edge>
    <edge id=":antrim_38" function="internal">
        <lane id=":antrim_38_0" index="0" speed="8.06" length="26.15" shape="2264.92,3454.86 2265.65,3460.87 2262.66,3467.78 2257.63,3472.87 2252.24,3473.45"/>
    </edge>
    <edge id=":antrim_39" function="internal">
        <lane id=":antrim_39_0" index="0" speed="7.99" length="25.78" shape="2264.92,3454.86 2265.62,3460.79 2262.64,3467.59 2257.67,3472.60 2252.36,3473.14"/>
    </edge>
    <edge id=":antrim_40" function="internal">
        <lane id=":antrim_40_0" index="0" speed="7.10" length="21.44" shape="2264.92,3454.86 2266.41,3460.52 2264.48,3465.62 2260.38,3468.38 2255.35,3467.04"/>
    </edge>
    <edge id=":antrim_41" function="internal">
        <lane id=":antrim_41_0" index="0" speed="3.71" length="4.91" shape="2264.92,3454.86 2265.39,3456.30 2265.20,3457.22 2264.35,3457.63 2262.84,3457.51"/>
    </edge>
    <edge id=":antrim_42" function="internal">
        <lane id=":antrim_42_0" index="0" speed="5.32" length="11.61" shape="2266.54,3452.81 2268.97,3456.01 2270.04,3456.74 2269.77,3454.99 2268.14,3450.76"/>
    </edge>
    <edge id=":antrim_43" function="internal">
        <lane id=":antrim_43_0" index="0" speed="5.97" length="15.04" shape="2266.54,3452.81 2269.66,3456.88 2271.08,3457.75 2270.81,3455.41 2268.84,3449.87"/>
    </edge>
    <edge id=":antrim_44" function="internal">
        <lane id=":antrim_44_0" index="0" speed="7.56" length="24.38" shape="2266.54,3452.81 2271.70,3459.32 2274.45,3460.68 2274.81,3456.89 2272.76,3447.93"/>
    </edge>
    <edge id=":antrim_45" function="internal">
        <lane id=":antrim_45_0" index="0" speed="7.98" length="26.98" shape="2266.54,3452.81 2272.28,3459.96 2275.52,3461.45 2276.26,3457.28 2274.51,3447.44"/>
    </edge>
    <edge id=":antrim_46" function="internal">
        <lane id=":antrim_46_0" index="0" speed="7.38" length="22.21" shape="2266.54,3452.81 2271.18,3458.45 2273.98,3459.49 2274.94,3455.92 2274.07,3447.74"/>
    </edge>
    <edge id=":antrim_47" function="internal">
        <lane id=":antrim_47_0" index="0" speed="7.55" length="23.15" shape="2266.54,3452.81 2271.38,3458.67 2274.35,3459.75 2275.46,3456.05 2274.71,3447.57"/>
    </edge>
    <edge id=":antrim_48" function="internal">
        <lane id=":antrim_48_0" index="0" speed="8.01" length="25.82" shape="2266.54,3452.81 2271.94,3459.26 2275.43,3460.44 2277.01,3456.37 2276.68,3447.03"/>
    </edge>
    <edge id=":antrim_49" function="internal">
        <lane id=":antrim_49_0" index="0" speed="9.20" length="31.84" shape="2266.54,3452.81 2274.72,3464.43 2280.57,3472.58 2284.11,3477.27 2285.31,3478.49"/>
    </edge>
    <edge id=":antrim_50" function="internal">
        <lane id=":antrim_50_0" index="0" speed="10.00" length="50.78" shape="2264.47,3455.44 2273.74,3471.02 2277.71,3483.68 2276.38,3493.44 2269.75,3500.28"/>
    </edge>
    <edge id=":antrim_51" function="internal">
        <lane id=":antrim_51_0" index="0" speed="8.75" length="29.93" shape="2264.47,3455.44 2265.55,3462.28 2262.49,3470.21 2257.00,3476.24 2250.76,3477.39"/>
    </edge>
    <edge id=":antrim_52" function="internal">
        <lane id=":antrim_52_0" index="0" speed="7.91" length="25.33" shape="2264.47,3455.44 2265.22,3461.23 2262.34,3467.92 2257.46,3472.87 2252.24,3473.45"/>
    </edge>
    <edge id=":antrim_53" function="internal">
        <lane id=":antrim_53_0" index="0" speed="7.84" length="24.96" shape="2264.47,3455.44 2265.20,3461.14 2262.33,3467.73 2257.50,3472.60 2252.36,3473.14"/>
    </edge>
    <edge id=":antrim_54" function="internal">
        <lane id=":antrim_54_0" index="0" speed="6.42" length="17.32" shape="2264.47,3455.44 2264.78,3459.38 2262.42,3463.89 2258.81,3467.07 2255.35,3467.04"/>
    </edge>
    <edge id=":antrim_55" function="internal">
        <lane id=":antrim_55_0" index="0" speed="10.00" length="144.78" shape="2264.47,3455.44 2233.33,3411.21 2222.68,3396.81 2232.52,3412.24 2262.84,3457.51"/>
    </edge>
    <edge id=":antrim_56" function="internal">
        <lane id=":antrim_56_0" index="0" speed="4.41" length="7.29" shape="2261.71,3458.94 2259.77,3457.21 2258.97,3456.83 2259.30,3457.81 2260.76,3460.15"/>
    </edge>
    <edge id=":antrim_57" function="internal">
        <lane id=":antrim_57_0" index="0" speed="7.98" length="26.68" shape="2261.71,3458.94 2268.35,3464.44 2271.64,3464.91 2271.57,3460.35 2268.14,3450.76"/>
    </edge>
    <edge id=":antrim_58" function="internal">
        <lane id=":antrim_58_0" index="0" speed="8.22" length="28.13" shape="2261.71,3458.94 2268.64,3464.62 2272.13,3464.99 2272.20,3460.08 2268.84,3449.87"/>
    </edge>
    <edge id=":antrim_59" function="internal">
        <lane id=":antrim_59_0" index="0" speed="8.99" length="32.64" shape="2261.71,3458.94 2269.69,3465.27 2274.19,3465.55 2275.21,3459.77 2272.76,3447.93"/>
    </edge>
    <edge id=":antrim_60" function="internal">
        <lane id=":antrim_60_0" index="0" speed="9.26" length="34.17" shape="2261.71,3458.94 2270.05,3465.49 2274.97,3465.75 2276.45,3459.74 2274.51,3447.44"/>
    </edge>
    <edge id=":antrim_61" function="internal">
        <lane id=":antrim_61_0" index="0" speed="8.88" length="30.42" shape="2261.71,3458.94 2268.89,3464.42 2273.35,3464.37 2275.07,3458.82 2274.07,3447.74"/>
    </edge>
    <edge id=":antrim_62" function="internal">
        <lane id=":antrim_62_0" index="0" speed="9.00" length="31.03" shape="2261.71,3458.94 2269.03,3464.50 2273.64,3464.46 2275.53,3458.81 2274.71,3447.57"/>
    </edge>
    <edge id=":antrim_63" function="internal">
        <lane id=":antrim_63_0" index="0" speed="10.00" length="38.01" shape="2259.72,3461.47 2268.52,3468.02 2274.28,3467.79 2277.00,3460.80 2276.68,3447.03"/>
    </edge>
    <edge id=":antrim_64" function="internal">
        <lane id=":antrim_64_0" index="0" speed="9.75" length="32.76" shape="2259.72,3461.47 2270.69,3471.56 2278.61,3477.75 2283.48,3480.07 2285.31,3478.49"/>
    </edge>
    <edge id=":antrim_65" function="internal">
        <lane id=":antrim_65_0" index="0" speed="10.00" length="47.69" shape="2259.72,3461.47 2270.27,3472.77 2276.66,3483.25 2277.08,3492.54 2269.75,3500.28"/>
    </edge>
    <edge id=":antrim_66" function="internal">
        <lane id=":antrim_66_0" index="0" speed="7.76" length="25.12" shape="2259.72,3461.47 2262.74,3467.43 2261.54,3473.42 2257.19,3477.41 2250.76,3477.39"/>
    </edge>
    <edge id=":antrim_67" function="internal">
        <lane id=":antrim_67_0" index="0" speed="6.30" length="16.59" shape="2259.72,3461.47 2260.58,3465.03 2258.83,3469.50 2255.66,3472.95 2252.24,3473.45"/>
    </edge>
    <edge id=":antrim_68" function="internal">
        <lane id=":antrim_68_0" index="0" speed="6.22" length="16.21" shape="2259.72,3461.47 2260.54,3464.94 2258.81,3469.31 2255.70,3472.67 2252.36,3473.14"/>
    </edge>
    <edge id=":antrim_69" function="internal">
        <lane id=":antrim_69_0" index="0" speed="4.99" length="10.34" shape="2259.72,3461.47 2260.72,3464.51 2260.32,3466.44 2258.53,3467.29 2255.35,3467.04"/>
    </edge>
    <edge id=":antrim_70" function="internal">
        <lane id=":antrim_70_0" index="0" speed="6.90" length="21.14" shape="2253.38,3470.44 2260.40,3473.77 2263.06,3474.31 2261.38,3472.07 2255.35,3467.04"/>
    </edge>
    <edge id=":antrim_71" function="internal">
        <lane id=":antrim_71_0" index="0" speed="8.35" length="28.23" shape="2253.38,3470.44 2262.06,3474.02 2266.18,3473.50 2265.75,3468.87 2260.76,3460.15"/>
    </edge>
    <edge id=":antrim_72" function="internal">
        <lane id=":antrim_72_0" index="0" speed="10.00" length="42.54" shape="2253.38,3470.44 2265.34,3474.88 2271.79,3473.08 2272.72,3465.04 2268.14,3450.76"/>
    </edge>
    <edge id=":antrim_73" function="internal">
        <lane id=":antrim_73_0" index="0" speed="10.00" length="43.44" shape="2253.38,3470.44 2265.44,3474.85 2272.03,3472.90 2273.17,3464.57 2268.84,3449.87"/>
    </edge>
    <edge id=":antrim_74" function="internal">
        <lane id=":antrim_74_0" index="0" speed="10.00" length="46.13" shape="2253.38,3470.44 2265.87,3474.83 2273.27,3472.54 2275.56,3463.58 2272.76,3447.93"/>
    </edge>
    <edge id=":antrim_75" function="internal">
        <lane id=":antrim_75_0" index="0" speed="10.00" length="47.09" shape="2253.38,3470.44 2266.05,3474.83 2273.79,3472.47 2276.61,3463.33 2274.51,3447.44"/>
    </edge>
    <edge id=":antrim_76" function="internal">
        <lane id=":antrim_76_0" index="0" speed="10.00" length="48.49" shape="2253.38,3470.44 2266.31,3474.85 2274.58,3472.39 2278.20,3463.07 2277.17,3446.89"/>
    </edge>
    <edge id=":antrim_77" function="internal">
        <lane id=":antrim_77_0" index="0" speed="10.00" length="48.88" shape="2253.38,3470.44 2266.37,3474.85 2274.77,3472.36 2278.58,3462.98 2277.81,3446.71"/>
    </edge>
    <edge id=":antrim_78" function="internal">
        <lane id=":antrim_78_0" index="0" speed="10.00" length="50.12" shape="2253.38,3470.44 2266.55,3474.84 2275.34,3472.26 2279.76,3462.70 2279.81,3446.17"/>
    </edge>
    <edge id=":antrim_79" function="internal">
        <lane id=":antrim_79_0" index="0" speed="10.00" length="35.14" shape="2253.38,3470.44 2267.09,3476.96 2276.98,3480.48 2283.06,3480.99 2285.31,3478.49"/>
    </edge>
    <edge id=":antrim_80" function="internal">
        <lane id=":antrim_80_0" index="0" speed="10.00" length="36.72" shape="2253.38,3470.44 2260.36,3476.19 2267.41,3485.22 2271.54,3494.31 2269.75,3500.28"/>
    </edge>
    <edge id=":antrim_81" function="internal">
        <lane id=":antrim_81_0" index="0" speed="4.68" length="8.78" shape="2253.38,3470.44 2254.23,3472.13 2253.76,3474.67 2252.45,3476.83 2250.76,3477.39"/>
    </edge>
    <edge id=":antrim_82" function="internal">
        <lane id=":antrim_82_0" index="0" speed="10.00" length="321.11" shape="2253.38,3470.44 2146.28,3415.61 2110.40,3397.78 2145.76,3416.96 2252.36,3473.14"/>
    </edge>
    <edge id=":antrim_83" function="internal">
        <lane id=":antrim_83_0" index="0" speed="3.66" length="4.70" shape="2253.38,3470.44 2254.23,3471.62 2254.32,3472.52 2253.66,3473.13 2252.24,3473.45"/>
    </edge>
    <edge id=":antrim_84" function="internal">
        <lane id=":antrim_84_0" index="0" speed="6.76" length="20.28" shape="2253.50,3470.13 2260.22,3473.40 2262.76,3473.97 2261.14,3471.85 2255.35,3467.04"/>
    </edge>
    <edge id=":antrim_85" function="internal">
        <lane id=":antrim_85_0" index="0" speed="8.29" length="27.91" shape="2253.50,3470.13 2262.08,3473.77 2266.14,3473.32 2265.71,3468.78 2260.76,3460.15"/>
    </edge>
    <edge id=":antrim_86" function="internal">
        <lane id=":antrim_86_0" index="0" speed="10.00" length="42.35" shape="2253.50,3470.13 2265.40,3474.68 2271.81,3472.98 2272.72,3465.00 2268.14,3450.76"/>
    </edge>
    <edge id=":antrim_87" function="internal">
        <lane id=":antrim_87_0" index="0" speed="10.00" length="43.25" shape="2253.50,3470.13 2265.50,3474.66 2272.05,3472.79 2273.17,3464.53 2268.84,3449.87"/>
    </edge>
    <edge id=":antrim_88" function="internal">
        <lane id=":antrim_88_0" index="0" speed="10.00" length="45.95" shape="2253.50,3470.13 2265.94,3474.64 2273.29,3472.44 2275.56,3463.54 2272.76,3447.93"/>
    </edge>
    <edge id=":antrim_89" function="internal">
        <lane id=":antrim_89_0" index="0" speed="10.00" length="46.92" shape="2253.50,3470.13 2266.11,3474.64 2273.82,3472.37 2276.62,3463.30 2274.51,3447.44"/>
    </edge>
    <edge id=":antrim_90" function="internal">
        <lane id=":antrim_90_0" index="0" speed="10.00" length="48.32" shape="2253.50,3470.13 2266.37,3474.66 2274.61,3472.29 2278.21,3463.04 2277.17,3446.89"/>
    </edge>
    <edge id=":antrim_91" function="internal">
        <lane id=":antrim_91_0" index="0" speed="10.00" length="48.71" shape="2253.50,3470.13 2266.43,3474.66 2274.80,3472.26 2278.59,3462.95 2277.81,3446.71"/>
    </edge>
    <edge id=":antrim_92" function="internal">
        <lane id=":antrim_92_0" index="0" speed="10.00" length="49.94" shape="2253.50,3470.13 2266.62,3474.65 2275.37,3472.17 2279.77,3462.67 2279.81,3446.17"/>
    </edge>
    <edge id=":antrim_93" function="internal">
        <lane id=":antrim_93_0" index="0" speed="10.00" length="35.10" shape="2253.50,3470.13 2267.16,3476.78 2277.01,3480.39 2283.06,3480.96 2285.31,3478.49"/>
    </edge>
    <edge id=":antrim_94" function="internal">
        <lane id=":antrim_94_0" index="0" speed="10.00" length="43.71" shape="2253.50,3470.13 2265.44,3477.24 2274.06,3484.98 2276.46,3492.82 2269.75,3500.28"/>
    </edge>
    <edge id=":antrim_95" function="internal">
        <lane id=":antrim_95_0" index="0" speed="4.77" length="9.18" shape="2253.50,3470.13 2254.38,3471.90 2253.90,3474.55 2252.53,3476.81 2250.76,3477.39"/>
    </edge>
    <edge id=":antrim_96" function="internal">
        <lane id=":antrim_96_0" index="0" speed="3.35" length="3.56" shape="2253.50,3470.13 2252.24,3473.45"/>
    </edge>
    <edge id=":antrim_97" function="internal">
        <lane id=":antrim_97_0" index="0" speed="3.66" length="4.71" shape="2253.50,3470.13 2254.35,3471.31 2254.44,3472.20 2253.78,3472.82 2252.36,3473.14"/>
    </edge>
    <edge id=":antrim_98" function="internal">
        <lane id=":antrim_98_0" index="0" speed="6.57" length="19.49" shape="2253.02,3471.40 2246.21,3468.97 2243.80,3468.50 2245.82,3470.00 2252.24,3473.45"/>
    </edge>
    <edge id=":antrim_99" function="internal">
        <lane id=":antrim_99_0" index="0" speed="5.91" length="15.33" shape="2253.02,3471.40 2247.67,3469.50 2245.77,3469.16 2247.34,3470.37 2252.36,3473.14"/>
    </edge>
    <edge id=":antrim_100" function="internal">
        <lane id=":antrim_100_0" index="0" speed="6.40" length="17.15" shape="2253.02,3471.40 2258.90,3473.30 2261.24,3473.20 2260.06,3471.11 2255.35,3467.04"/>
    </edge>
    <edge id=":antrim_101" function="internal">
        <lane id=":antrim_101_0" index="0" speed="8.24" length="26.12" shape="2253.02,3471.40 2261.22,3473.61 2265.24,3472.48 2265.09,3467.99 2260.76,3460.15"/>
    </edge>
    <edge id=":antrim_102" function="internal">
        <lane id=":antrim_102_0" index="0" speed="10.00" length="40.28" shape="2253.02,3471.40 2264.59,3474.13 2270.97,3471.60 2272.15,3463.81 2268.14,3450.76"/>
    </edge>
    <edge id=":antrim_103" function="internal">
        <lane id=":antrim_103_0" index="0" speed="10.00" length="41.27" shape="2253.02,3471.40 2264.73,3474.11 2271.27,3471.42 2272.64,3463.34 2268.84,3449.87"/>
    </edge>
    <edge id=":antrim_104" function="internal">
        <lane id=":antrim_104_0" index="0" speed="10.00" length="44.29" shape="2253.02,3471.40 2265.32,3474.12 2272.70,3471.11 2275.19,3462.38 2272.76,3447.93"/>
    </edge>
    <edge id=":antrim_105" function="internal">
        <lane id=":antrim_105_0" index="0" speed="10.00" length="49.45" shape="2251.89,3474.40 2265.25,3477.23 2273.47,3473.68 2276.56,3463.75 2274.51,3447.44"/>
    </edge>
    <edge id=":antrim_106" function="internal">
        <lane id=":antrim_106_0" index="0" speed="10.00" length="50.81" shape="2251.89,3474.40 2265.49,3477.22 2274.24,3473.58 2278.13,3463.47 2277.17,3446.89"/>
    </edge>
    <edge id=":antrim_107" function="internal">
        <lane id=":antrim_107_0" index="0" speed="10.00" length="51.19" shape="2251.89,3474.40 2265.55,3477.22 2274.42,3473.54 2278.51,3463.38 2277.81,3446.71"/>
    </edge>
    <edge id=":antrim_108" function="internal">
        <lane id=":antrim_108_0" index="0" speed="10.00" length="52.40" shape="2251.89,3474.40 2265.73,3477.20 2274.99,3473.43 2279.68,3463.09 2279.81,3446.17"/>
    </edge>
    <edge id=":antrim_109" function="internal">
        <lane id=":antrim_109_0" index="0" speed="10.00" length="35.83" shape="2251.89,3474.40 2266.24,3479.29 2276.60,3481.60 2282.95,3481.33 2285.31,3478.49"/>
    </edge>
    <edge id=":antrim_110" function="internal">
        <lane id=":antrim_110_0" index="0" speed="9.98" length="34.45" shape="2251.89,3474.40 2259.27,3479.14 2266.82,3486.84 2271.38,3494.80 2269.75,3500.28"/>
    </edge>
    <edge id=":antrim_111" function="internal">
        <lane id=":antrim_111_0" index="0" speed="3.65" length="4.67" shape="2251.89,3474.40 2252.73,3475.57 2252.82,3476.46 2252.16,3477.06 2250.76,3477.39"/>
    </edge>
    <edge id=":antrim_112" function="internal">
        <lane id=":antrim_112_0" index="0" speed="9.05" length="30.93" shape="2266.50,3493.89 2271.05,3490.99 2269.94,3487.28 2263.18,3482.74 2250.76,3477.39"/>
    </edge>
    <edge id=":antrim_113" function="internal">
        <lane id=":antrim_113_0" index="0" speed="9.56" length="32.87" shape="2266.50,3493.89 2271.39,3490.66 2270.64,3486.18 2264.26,3480.45 2252.24,3473.45"/>
    </edge>
    <edge id=":antrim_114" function="internal">
        <lane id=":antrim_114_0" index="0" speed="9.60" length="33.04" shape="2266.50,3493.89 2271.41,3490.64 2270.69,3486.10 2264.34,3480.26 2252.36,3473.14"/>
    </edge>
    <edge id=":antrim_115" function="internal">
        <lane id=":antrim_115_0" index="0" speed="10.00" length="36.35" shape="2266.50,3493.89 2271.87,3490.16 2271.80,3484.45 2266.29,3476.74 2255.35,3467.04"/>
    </edge>
    <edge id=":antrim_116" function="internal">
        <lane id=":antrim_116_0" index="0" speed="10.00" length="38.81" shape="2266.50,3493.89 2271.34,3490.03 2271.99,3483.12 2268.47,3473.16 2260.76,3460.15"/>
    </edge>
    <edge id=":antrim_117" function="internal">
        <lane id=":antrim_117_0" index="0" speed="10.00" length="47.88" shape="2266.50,3493.89 2273.11,3489.00 2275.59,3480.18 2273.93,3467.44 2268.14,3450.76"/>
    </edge>
    <edge id=":antrim_118" function="internal">
        <lane id=":antrim_118_0" index="0" speed="10.00" length="48.68" shape="2266.50,3493.89 2273.17,3488.94 2275.78,3479.95 2274.34,3466.93 2268.84,3449.87"/>
    </edge>
    <edge id=":antrim_119" function="internal">
        <lane id=":antrim_119_0" index="0" speed="10.00" length="50.49" shape="2266.50,3493.89 2273.47,3488.80 2276.84,3479.44 2276.60,3465.82 2272.76,3447.93"/>
    </edge>
    <edge id=":antrim_120" function="internal">
        <lane id=":antrim_120_0" index="0" speed="10.00" length="51.04" shape="2266.50,3493.89 2273.60,3488.76 2277.31,3479.31 2277.61,3465.53 2274.51,3447.44"/>
    </edge>
    <edge id=":antrim_121" function="internal">
        <lane id=":antrim_121_0" index="0" speed="10.00" length="51.81" shape="2266.50,3493.89 2273.80,3488.71 2278.01,3479.16 2279.14,3465.21 2277.17,3446.89"/>
    </edge>
    <edge id=":antrim_122" function="internal">
        <lane id=":antrim_122_0" index="0" speed="10.00" length="52.05" shape="2266.50,3493.89 2273.85,3488.70 2278.19,3479.11 2279.51,3465.11 2277.81,3446.71"/>
    </edge>
    <edge id=":antrim_123" function="internal">
        <lane id=":antrim_123_0" index="0" speed="10.00" length="52.87" shape="2266.50,3493.89 2274.00,3488.66 2278.71,3478.96 2280.65,3464.80 2279.81,3446.17"/>
    </edge>
    <edge id=":antrim_124" function="internal">
        <lane id=":antrim_124_0" index="0" speed="10.00" length="25.53" shape="2266.50,3493.89 2274.43,3490.65 2280.20,3487.00 2283.83,3482.95 2285.31,3478.49"/>
    </edge>
    <edge id=":antrim_125" function="internal">
        <lane id=":antrim_125_0" index="0" speed="5.00" length="10.04" shape="2266.50,3493.89 2269.09,3494.07 2270.84,3495.86 2271.23,3498.26 2269.75,3500.28"/>
    </edge>
    <edge id=":antrim_126" function="internal">
        <lane id=":antrim_126_0" index="0" speed="9.93" length="34.12" shape="2268.15,3497.52 2272.36,3493.18 2270.87,3488.38 2263.67,3483.12 2250.76,3477.39"/>
    </edge>
    <edge id=":antrim_127" function="internal">
        <lane id=":antrim_127_0" index="0" speed="10.00" length="35.93" shape="2268.15,3497.52 2272.60,3492.85 2271.43,3487.29 2264.65,3480.82 2252.24,3473.45"/>
    </edge>
    <edge id=":antrim_128" function="internal">
        <lane id=":antrim_128_0" index="0" speed="10.00" length="36.09" shape="2268.15,3497.52 2272.62,3492.83 2271.47,3487.20 2264.72,3480.64 2252.36,3473.14"/>
    </edge>
    <edge id=":antrim_129" function="internal">
        <lane id=":antrim_129_0" index="0" speed="10.00" length="39.26" shape="2268.15,3497.52 2272.97,3492.34 2272.45,3485.54 2266.58,3477.11 2255.35,3467.04"/>
    </edge>
    <edge id=":antrim_130" function="internal">
        <lane id=":antrim_130_0" index="0" speed="10.00" length="41.85" shape="2268.15,3497.52 2272.48,3492.40 2272.70,3484.46 2268.79,3473.71 2260.76,3460.15"/>
    </edge>
    <edge id=":antrim_131" function="internal">
        <lane id=":antrim_131_0" index="0" speed="10.00" length="50.44" shape="2268.15,3497.52 2274.08,3491.15 2276.06,3481.23 2274.08,3467.77 2268.14,3450.76"/>
    </edge>
    <edge id=":antrim_132" function="internal">
        <lane id=":antrim_132_0" index="0" speed="10.00" length="51.23" shape="2268.15,3497.52 2274.14,3491.09 2276.25,3481.00 2274.49,3467.26 2268.84,3449.87"/>