<?xml version="1.0" encoding="UTF-8"?>

<!-- generated on 2025-02-22 20:24:16 by Eclipse SUMO netconvert Version 1.18.0
<configuration xmlns:xsi="http://www.w3.org/2001/XMLSchema-instance" xsi:noNamespaceSchemaLocation="http://sumo.dlr.de/xsd/netconvertConfiguration.xsd">

    <input>
        <node-files value="config/workspace/nod.xml"/>
        <edge-files value="config/workspace/edg.xml"/>
    </input>

    <output>
        <output-file value="config/workspace/current_network.net.xml"/>
    </output>

</configuration>
-->

<net version="1.16" junctionCornerDetail="5" limitTurnSpeed="5.50" xmlns:xsi="http://www.w3.org/2001/XMLSchema-instance" xsi:noNamespaceSchemaLocation="http://sumo.dlr.de/xsd/net_file.xsd">

    <location netOffset="-682.00,4368.00" convBoundary="0.00,0.00,2498.00,3881.00" origBoundary="682.00,-4368.00,3180.00,-487.00" projParameter="!"/>

    <edge id=":antrim_0" function="internal">
        <lane id=":antrim_0_0" index="0" speed="9.90" length="25.79" shape="2287.14,3465.14 2286.78,3472.63 2285.62,3480.85 2283.87,3487.39 2281.77,3489.83"/>
    </edge>
    <edge id=":antrim_1" function="internal">
        <lane id=":antrim_1_0" index="0" speed="9.20" length="29.05" shape="2287.14,3465.14 2284.34,3470.68 2277.52,3474.15 2269.41,3475.04 2262.74,3472.82"/>
    </edge>
    <edge id=":antrim_2" function="internal">
        <lane id=":antrim_2_0" index="0" speed="8.47" length="25.96" shape="2287.14,3465.14 2284.48,3469.82 2278.09,3472.35 2270.68,3472.45 2264.95,3469.85"/>
    </edge>
    <edge id=":antrim_3" function="internal">
        <lane id=":antrim_3_0" index="0" speed="7.86" length="23.27" shape="2287.14,3465.14 2284.65,3469.12 2278.74,3470.92 2272.01,3470.46 2267.10,3467.68"/>
    </edge>
    <edge id=":antrim_4" function="internal">
        <lane id=":antrim_4_0" index="0" speed="7.54" length="21.82" shape="2287.14,3465.14 2284.76,3468.73 2279.12,3470.11 2272.78,3469.34 2268.29,3466.48"/>
    </edge>
    <edge id=":antrim_5" function="internal">
        <lane id=":antrim_5_0" index="0" speed="7.74" length="23.75" shape="2287.14,3465.14 2285.20,3470.42 2280.35,3471.92 2274.51,3470.03 2269.61,3465.15"/>
    </edge>
    <edge id=":antrim_6" function="internal">
        <lane id=":antrim_6_0" index="0" speed="5.40" length="11.68" shape="2287.14,3465.14 2285.93,3467.73 2283.13,3469.94 2280.14,3470.93 2278.33,3469.85"/>
    </edge>
    <edge id=":antrim_7" function="internal">
        <lane id=":antrim_7_0" index="0" speed="9.73" length="25.33" shape="2286.48,3465.49 2286.33,3472.86 2285.38,3480.97 2283.81,3487.42 2281.77,3489.83"/>
    </edge>
    <edge id=":antrim_8" function="internal">
        <lane id=":antrim_8_0" index="0" speed="9.02" length="28.26" shape="2286.48,3465.49 2283.85,3470.85 2277.20,3474.17 2269.25,3474.99 2262.74,3472.82"/>
    </edge>
    <edge id=":antrim_9" function="internal">
        <lane id=":antrim_9_0" index="0" speed="8.29" length="25.17" shape="2286.48,3465.49 2283.98,3469.99 2277.77,3472.37 2270.53,3472.40 2264.95,3469.85"/>
    </edge>
    <edge id=":antrim_10" function="internal">
        <lane id=":antrim_10_0" index="0" speed="7.69" length="22.48" shape="2286.48,3465.49 2284.15,3469.29 2278.42,3470.94 2271.87,3470.41 2267.10,3467.68"/>
    </edge>
    <edge id=":antrim_11" function="internal">
        <lane id=":antrim_11_0" index="0" speed="7.37" length="21.05" shape="2286.48,3465.49 2284.25,3468.91 2278.80,3470.13 2272.64,3469.28 2268.29,3466.48"/>
    </edge>
    <edge id=":antrim_12" function="internal">
        <lane id=":antrim_12_0" index="0" speed="7.04" length="19.54" shape="2286.48,3465.49 2284.37,3468.49 2279.24,3469.23 2273.52,3468.02 2269.61,3465.15"/>
    </edge>
    <edge id=":antrim_13" function="internal">
        <lane id=":antrim_13_0" index="0" speed="5.20" length="10.82" shape="2286.48,3465.49 2285.40,3467.89 2282.81,3469.93 2280.01,3470.84 2278.33,3469.85"/>
    </edge>
    <edge id=":antrim_14" function="internal">
        <lane id=":antrim_14_0" index="0" speed="9.60" length="25.58" shape="2285.17,3466.20 2285.94,3475.59 2285.89,3483.32 2284.63,3488.39 2281.77,3489.83"/>
    </edge>
    <edge id=":antrim_15" function="internal">
        <lane id=":antrim_15_0" index="0" speed="8.66" length="26.69" shape="2285.17,3466.20 2282.88,3471.18 2276.57,3474.22 2268.95,3474.90 2262.74,3472.82"/>
    </edge>
    <edge id=":antrim_16" function="internal">
        <lane id=":antrim_16_0" index="0" speed="7.95" length="23.61" shape="2285.17,3466.20 2282.99,3470.33 2277.13,3472.41 2270.24,3472.29 2264.95,3469.85"/>
    </edge>
    <edge id=":antrim_17" function="internal">
        <lane id=":antrim_17_0" index="0" speed="7.36" length="20.94" shape="2285.17,3466.20 2283.14,3469.63 2277.78,3470.97 2271.59,3470.30 2267.10,3467.68"/>
    </edge>
    <edge id=":antrim_18" function="internal">
        <lane id=":antrim_18_0" index="0" speed="7.04" length="19.53" shape="2285.17,3466.20 2283.24,3469.25 2278.16,3470.17 2272.37,3469.17 2268.29,3466.48"/>
    </edge>
    <edge id=":antrim_19" function="internal">
        <lane id=":antrim_19_0" index="0" speed="6.72" length="18.06" shape="2285.17,3466.20 2283.35,3468.84 2278.61,3469.28 2273.26,3467.91 2269.61,3465.15"/>
    </edge>
    <edge id=":antrim_20" function="internal">
        <lane id=":antrim_20_0" index="0" speed="5.25" length="11.32" shape="2285.17,3466.20 2284.83,3469.67 2283.58,3471.44 2281.41,3471.50 2278.33,3469.85"/>
    </edge>
    <edge id=":antrim_21" function="internal">
        <lane id=":antrim_21_0" index="0" speed="8.17" length="21.51" shape="2279.42,3469.27 2281.40,3475.26 2282.89,3482.18 2283.23,3487.78 2281.77,3489.83"/>
    </edge>
    <edge id=":antrim_22" function="internal">
        <lane id=":antrim_22_0" index="0" speed="7.07" length="19.67" shape="2279.42,3469.27 2278.37,3472.53 2273.58,3474.32 2267.54,3474.48 2262.74,3472.82"/>
    </edge>
    <edge id=":antrim_23" function="internal">
        <lane id=":antrim_23_0" index="0" speed="6.41" length="16.71" shape="2279.42,3469.27 2278.42,3471.72 2274.16,3472.52 2268.90,3471.83 2264.95,3469.85"/>
    </edge>
    <edge id=":antrim_24" function="internal">
        <lane id=":antrim_24_0" index="0" speed="5.88" length="14.29" shape="2279.42,3469.27 2278.53,3471.09 2274.82,3471.13 2270.33,3469.84 2267.10,3467.68"/>
    </edge>
    <edge id=":antrim_25" function="internal">
        <lane id=":antrim_25_0" index="0" speed="5.61" length="13.13" shape="2279.42,3469.27 2278.61,3470.76 2275.23,3470.37 2271.16,3468.73 2268.29,3466.48"/>
    </edge>
    <edge id=":antrim_26" function="internal">
        <lane id=":antrim_26_0" index="0" speed="5.45" length="12.83" shape="2279.42,3469.27 2277.50,3464.93 2276.68,3463.58 2276.96,3465.22 2278.33,3469.85"/>
    </edge>
    <edge id=":antrim_27" function="internal">
        <lane id=":antrim_27_0" index="0" speed="5.97" length="15.53" shape="2279.42,3469.27 2275.42,3471.92 2272.46,3472.11 2270.52,3469.86 2269.61,3465.15"/>
    </edge>
    <edge id=":antrim_28" function="internal">
        <lane id=":antrim_28_0" index="0" speed="6.13" length="15.64" shape="2270.95,3463.81 2275.25,3469.89 2277.92,3472.92 2278.94,3472.91 2278.33,3469.85"/>
    </edge>
    <edge id=":antrim_29" function="internal">
        <lane id=":antrim_29_0" index="0" speed="9.21" length="30.55" shape="2270.95,3463.81 2277.23,3473.52 2282.05,3482.14 2284.02,3488.10 2281.77,3489.83"/>
    </edge>
    <edge id=":antrim_30" function="internal">
        <lane id=":antrim_30_0" index="0" speed="6.37" length="16.90" shape="2270.95,3463.81 2272.01,3468.17 2270.26,3471.99 2266.80,3473.96 2262.74,3472.82"/>
    </edge>
    <edge id=":antrim_31" function="internal">
        <lane id=":antrim_31_0" index="0" speed="5.36" length="11.91" shape="2270.95,3463.81 2271.59,3466.88 2270.18,3469.56 2267.66,3470.88 2264.95,3469.85"/>
    </edge>
    <edge id=":antrim_32" function="internal">
        <lane id=":antrim_32_0" index="0" speed="4.13" length="6.46" shape="2270.95,3463.81 2270.93,3465.25 2269.83,3466.85 2268.32,3467.89 2267.10,3467.68"/>
    </edge>
    <edge id=":antrim_33" function="internal">
        <lane id=":antrim_33_0" index="0" speed="9.05" length="39.91" shape="2270.95,3463.81 2262.55,3451.56 2259.53,3447.70 2261.88,3452.23 2269.61,3465.15"/>
    </edge>
    <edge id=":antrim_34" function="internal">
        <lane id=":antrim_34_0" index="0" speed="3.87" length="5.50" shape="2270.95,3463.81 2271.29,3465.47 2270.96,3466.47 2269.96,3466.81 2268.29,3466.48"/>
    </edge>
    <edge id=":antrim_35" function="internal">
        <lane id=":antrim_35_0" index="0" speed="3.74" length="4.79" shape="2266.65,3468.14 2267.95,3469.34 2268.46,3469.67 2268.18,3469.11 2267.10,3467.68"/>
    </edge>
    <edge id=":antrim_36" function="internal">
        <lane id=":antrim_36_0" index="0" speed="5.43" length="12.28" shape="2266.65,3468.14 2269.98,3471.14 2271.36,3471.87 2270.80,3470.31 2268.29,3466.48"/>
    </edge>
    <edge id=":antrim_37" function="internal">
        <lane id=":antrim_37_0" index="0" speed="6.30" length="16.85" shape="2266.65,3468.14 2271.17,3472.13 2273.17,3472.96 2272.65,3470.63 2269.61,3465.15"/>
    </edge>
    <edge id=":antrim_38" function="internal">
        <lane id=":antrim_38_0" index="0" speed="7.26" length="20.92" shape="2266.65,3468.14 2273.36,3474.01 2277.55,3476.25 2279.20,3474.87 2278.33,3469.85"/>
    </edge>
    <edge id=":antrim_39" function="internal">
        <lane id=":antrim_39_0" index="0" speed="8.34" length="27.26" shape="2266.65,3468.14 2272.34,3474.23 2278.32,3481.60 2282.24,3487.67 2281.77,3489.83"/>
    </edge>
    <edge id=":antrim_40" function="internal">
        <lane id=":antrim_40_0" index="0" speed="4.32" length="7.22" shape="2266.65,3468.14 2266.88,3469.64 2265.84,3471.48 2264.23,3472.82 2262.74,3472.82"/>
    </edge>
    <edge id=":antrim_41" function="internal">
        <lane id=":antrim_41_0" index="0" speed="3.34" length="3.51" shape="2266.65,3468.14 2266.86,3469.20 2266.65,3469.84 2266.02,3470.06 2264.95,3469.85"/>
    </edge>
    <edge id=":antrim_42" function="internal">
        <lane id=":antrim_42_0" index="0" speed="5.30" length="11.56" shape="2261.75,3474.74 2265.56,3476.55 2267.00,3476.83 2266.06,3475.59 2262.74,3472.82"/>
    </edge>
    <edge id=":antrim_43" function="internal">
        <lane id=":antrim_43_0" index="0" speed="6.77" length="19.27" shape="2261.75,3474.74 2268.01,3477.55 2270.63,3477.67 2269.61,3475.10 2264.95,3469.85"/>
    </edge>
    <edge id=":antrim_44" function="internal">
        <lane id=":antrim_44_0" index="0" speed="7.43" length="22.69" shape="2261.75,3474.74 2268.99,3477.85 2272.30,3477.71 2271.66,3474.32 2267.10,3467.68"/>
    </edge>
    <edge id=":antrim_45" function="internal">
        <lane id=":antrim_45_0" index="0" speed="7.75" length="24.26" shape="2261.75,3474.74 2269.37,3477.93 2273.00,3477.62 2272.64,3473.80 2268.29,3466.48"/>
    </edge>
    <edge id=":antrim_46" function="internal">
        <lane id=":antrim_46_0" index="0" speed="8.09" length="25.87" shape="2261.75,3474.74 2269.72,3477.98 2273.68,3477.46 2273.65,3473.19 2269.61,3465.15"/>
    </edge>
    <edge id=":antrim_47" function="internal">
        <lane id=":antrim_47_0" index="0" speed="8.53" length="25.91" shape="2261.75,3474.74 2270.88,3478.59 2276.69,3479.06 2279.17,3476.15 2278.33,3469.85"/>
    </edge>
    <edge id=":antrim_48" function="internal">
        <lane id=":antrim_48_0" index="0" speed="9.06" length="36.61" shape="2261.75,3474.74 2272.41,3471.01 2279.31,3472.27 2282.42,3478.55 2281.77,3489.83"/>
    </edge>
    <edge id=":athlone_0" function="internal">
        <lane id=":athlone_0_0" index="0" speed="5.81" length="9.00" shape="1260.62,1972.15 1259.02,1970.13 1257.31,1969.39 1255.50,1969.94 1253.58,1971.78"/>
    </edge>
    <edge id=":athlone_1" function="internal">
        <lane id=":athlone_1_0" index="0" speed="3.93" length="5.65" shape="1260.62,1972.15 1260.48,1970.71 1261.36,1969.56 1262.67,1969.11 1263.86,1969.79"/>
    </edge>
    <edge id=":athlone_2" function="internal">
        <lane id=":athlone_2_0" index="0" speed="4.20" length="6.66" shape="1260.62,1972.15 1260.54,1970.10 1261.12,1968.97 1262.38,1968.76 1264.31,1969.46"/>
    </edge>
    <edge id=":athlone_3" function="internal">
        <lane id=":athlone_3_0" index="0" speed="5.99" length="9.37" shape="1261.05,1971.84 1259.32,1969.87 1257.50,1969.20 1255.59,1969.84 1253.58,1971.78"/>
    </edge>
    <edge id=":athlone_4" function="internal">
        <lane id=":athlone_4_0" index="0" speed="3.94" length="5.69" shape="1261.05,1971.84 1260.86,1970.42 1261.72,1969.27 1263.06,1968.81 1264.31,1969.46"/>
    </edge>
    <edge id=":athlone_5" function="internal">
        <lane id=":athlone_5_0" index="0" speed="3.76" length="5.07" shape="1261.05,1971.84 1260.98,1970.28 1261.43,1969.41 1262.39,1969.25 1263.86,1969.79"/>
    </edge>
    <edge id=":athlone_6" function="internal">
        <lane id=":athlone_6_0" index="0" speed="7.15" length="13.25" shape="1265.89,1958.67 1263.02,1960.48 1261.81,1962.88 1262.23,1965.88 1264.31,1969.46"/>
    </edge>
    <edge id=":athlone_7" function="internal">
        <lane id=":athlone_7_0" index="0" speed="7.32" length="13.54" shape="1265.89,1958.67 1262.96,1960.51 1261.65,1962.98 1261.95,1966.08 1263.86,1969.79"/>
    </edge>
    <edge id=":athlone_8" function="internal">
        <lane id=":athlone_8_0" index="0" speed="10.00" length="18.18" shape="1265.89,1958.67 1262.80,1960.53 1260.09,1963.29 1257.21,1967.03 1253.58,1971.78"/>
    </edge>
    <edge id=":athlone_9" function="internal">
        <lane id=":athlone_9_0" index="0" speed="10.00" length="22.24" shape="1266.65,1948.89 1263.25,1954.71 1261.73,1960.08 1262.08,1965.00 1264.31,1969.46"/>
    </edge>
    <edge id=":athlone_10" function="internal">
        <lane id=":athlone_10_0" index="0" speed="10.00" length="22.51" shape="1266.65,1948.89 1263.21,1954.75 1261.60,1960.18 1261.82,1965.20 1263.86,1969.79"/>
    </edge>
    <edge id=":athlone_11" function="internal">
        <lane id=":athlone_11_0" index="0" speed="10.00" length="26.40" shape="1266.65,1948.89 1264.25,1953.08 1261.35,1958.92 1257.83,1965.47 1253.58,1971.78"/>
    </edge>
    <edge id=":athlone_12" function="internal">
        <lane id=":athlone_12_0" index="0" speed="10.00" length="23.57" shape="1262.90,1946.90 1261.08,1953.50 1260.70,1959.46 1261.78,1964.78 1264.31,1969.46"/>
    </edge>
    <edge id=":athlone_13" function="internal">
        <lane id=":athlone_13_0" index="0" speed="10.00" length="23.78" shape="1262.90,1946.90 1261.04,1953.54 1260.58,1959.57 1261.52,1964.98 1263.86,1969.79"/>
    </edge>
    <edge id=":athlone_14" function="internal">
        <lane id=":athlone_14_0" index="0" speed="10.00" length="25.87" shape="1262.90,1946.90 1261.20,1951.36 1258.67,1957.17 1255.30,1963.57 1251.07,1969.80"/>
    </edge>
    <edge id=":athlone_15" function="internal">
        <lane id=":athlone_15_0" index="0" speed="10.00" length="20.55" shape="1255.40,1951.03 1256.83,1955.41 1259.14,1960.57 1261.81,1965.58 1264.31,1969.46"/>
    </edge>
    <edge id=":athlone_16" function="internal">
        <lane id=":athlone_16_0" index="0" speed="10.00" length="20.64" shape="1255.40,1951.03 1256.79,1955.44 1258.99,1960.69 1261.51,1965.80 1263.86,1969.79"/>
    </edge>
    <edge id=":athlone_17" function="internal">
        <lane id=":athlone_17_0" index="0" speed="10.00" length="19.93" shape="1255.40,1951.03 1256.00,1956.09 1255.48,1960.90 1253.84,1965.47 1251.07,1969.80"/>
    </edge>
    <edge id=":athlone_18" function="internal">
        <lane id=":athlone_18_0" index="0" speed="10.00" length="22.64" shape="1249.45,1952.40 1252.86,1955.97 1257.10,1960.73 1261.23,1965.60 1264.31,1969.46"/>
    </edge>
    <edge id=":athlone_19" function="internal">
        <lane id=":athlone_19_0" index="0" speed="10.00" length="22.61" shape="1249.45,1952.40 1252.82,1956.00 1256.95,1960.85 1260.93,1965.82 1263.86,1969.79"/>
    </edge>
    <edge id=":athlone_20" function="internal">
        <lane id=":athlone_20_0" index="0" speed="9.66" length="19.51" shape="1249.45,1952.40 1252.82,1956.66 1254.21,1960.98 1253.62,1965.36 1251.07,1969.80"/>
    </edge>
    <edge id=":athlone_21" function="internal">
        <lane id=":athlone_21_0" index="0" speed="10.00" length="21.70" shape="1246.92,1956.79 1251.25,1958.78 1256.30,1962.13 1261.01,1965.98 1264.31,1969.46"/>
    </edge>
    <edge id=":athlone_22" function="internal">
        <lane id=":athlone_22_0" index="0" speed="10.00" length="21.57" shape="1246.92,1956.79 1251.20,1958.81 1256.15,1962.24 1260.71,1966.20 1263.86,1969.79"/>
    </edge>
    <edge id=":athlone_23" function="internal">
        <lane id=":athlone_23_0" index="0" speed="7.81" length="17.58" shape="1246.92,1956.79 1251.61,1958.85 1253.87,1961.70 1253.69,1965.35 1251.07,1969.80"/>
    </edge>
    <edge id=":belfast_0" function="internal">
        <lane id=":belfast_0_0" index="0" speed="10.00" length="39.42" shape="2496.93,3332.03 2497.38,3344.51 2495.46,3353.81 2490.25,3359.61 2480.82,3361.62"/>
    </edge>
    <edge id=":belfast_1" function="internal">
        <lane id=":belfast_1_0" index="0" speed="10.00" length="36.84" shape="2496.93,3332.03 2497.32,3343.52 2495.50,3352.40 2490.48,3357.46 2481.32,3357.50"/>
    </edge>
    <edge id=":belfast_2" function="internal">
        <lane id=":belfast_2_0" index="0" speed="10.00" length="37.56" shape="2496.93,3332.03 2494.82,3340.75 2487.83,3343.83 2478.36,3341.98 2468.81,3335.94"/>
    </edge>
    <edge id=":belfast_3" function="internal">
        <lane id=":belfast_3_0" index="0" speed="8.07" length="25.91" shape="2496.93,3332.03 2494.35,3335.79 2487.63,3336.33 2479.96,3334.33 2474.49,3330.49"/>
    </edge>
    <edge id=":belfast_4" function="internal">
        <lane id=":belfast_4_0" index="0" speed="6.31" length="17.01" shape="2496.93,3332.03 2495.69,3335.21 2492.17,3335.03 2488.09,3332.35 2485.22,3328.01"/>
    </edge>
    <edge id=":belfast_5" function="internal">
        <lane id=":belfast_5_0" index="0" speed="6.26" length="16.74" shape="2496.93,3332.03 2495.72,3335.13 2492.25,3334.90 2488.26,3332.21 2485.47,3327.92"/>
    </edge>
    <edge id=":belfast_6" function="internal">
        <lane id=":belfast_6_0" index="0" speed="6.87" length="20.14" shape="2496.93,3332.03 2492.33,3336.21 2488.56,3337.05 2485.64,3334.54 2483.55,3328.68"/>
    </edge>
    <edge id=":belfast_7" function="internal">
        <lane id=":belfast_7_0" index="0" speed="10.00" length="38.93" shape="2491.64,3325.75 2491.76,3335.01 2489.55,3346.93 2485.68,3357.23 2480.82,3361.62"/>
    </edge>
    <edge id=":belfast_8" function="internal">
        <lane id=":belfast_8_0" index="0" speed="10.00" length="41.02" shape="2491.64,3325.75 2494.02,3338.88 2493.95,3349.86 2490.15,3356.72 2481.32,3357.50"/>
    </edge>
    <edge id=":belfast_9" function="internal">
        <lane id=":belfast_9_0" index="0" speed="9.27" length="33.68" shape="2491.64,3325.75 2490.86,3334.36 2485.28,3339.40 2477.18,3340.16 2468.81,3335.94"/>
    </edge>
    <edge id=":belfast_10" function="internal">
        <lane id=":belfast_10_0" index="0" speed="7.11" length="20.78" shape="2491.64,3325.75 2490.02,3329.60 2484.88,3332.08 2478.83,3332.58 2474.49,3330.49"/>
    </edge>
    <edge id=":belfast_11" function="internal">
        <lane id=":belfast_11_0" index="0" speed="5.36" length="12.07" shape="2491.64,3325.75 2491.09,3328.80 2488.68,3330.62 2485.73,3330.75 2483.55,3328.68"/>
    </edge>
    <edge id=":belfast_12" function="internal">
        <lane id=":belfast_12_0" index="0" speed="4.84" length="9.58" shape="2491.64,3325.75 2491.18,3328.16 2489.22,3329.60 2486.87,3329.69 2485.22,3328.01"/>
    </edge>
    <edge id=":belfast_13" function="internal">
        <lane id=":belfast_13_0" index="0" speed="4.82" length="9.55" shape="2491.64,3325.75 2490.91,3328.61 2489.64,3329.92 2487.82,3329.69 2485.47,3327.92"/>
    </edge>
    <edge id=":belfast_14" function="internal">
        <lane id=":belfast_14_0" index="0" speed="10.00" length="42.57" shape="2488.20,3326.83 2492.05,3340.14 2493.01,3351.22 2489.71,3358.80 2480.82,3361.62"/>
    </edge>
    <edge id=":belfast_15" function="internal">
        <lane id=":belfast_15_0" index="0" speed="10.00" length="34.06" shape="2488.20,3326.83 2489.49,3335.45 2488.90,3346.07 2486.24,3354.74 2481.32,3357.50"/>
    </edge>
    <edge id=":belfast_16" function="internal">
        <lane id=":belfast_16_0" index="0" speed="8.48" length="29.15" shape="2488.20,3326.83 2488.06,3334.11 2483.28,3338.58 2476.12,3339.45 2468.81,3335.94"/>
    </edge>
    <edge id=":belfast_17" function="internal">
        <lane id=":belfast_17_0" index="0" speed="6.31" length="16.62" shape="2488.20,3326.83 2487.10,3329.82 2482.97,3331.76 2478.02,3332.15 2474.49,3330.49"/>
    </edge>
    <edge id=":belfast_18" function="internal">
        <lane id=":belfast_18_0" index="0" speed="4.26" length="7.07" shape="2488.20,3326.83 2488.00,3328.59 2486.61,3329.70 2484.85,3329.85 2483.55,3328.68"/>
    </edge>
    <edge id=":belfast_19" function="internal">
        <lane id=":belfast_19_0" index="0" speed="10.00" length="378.12" shape="2488.20,3326.83 2441.60,3192.95 2425.62,3148.50 2440.24,3193.49 2485.47,3327.92"/>
    </edge>
    <edge id=":belfast_20" function="internal">
        <lane id=":belfast_20_0" index="0" speed="3.65" length="4.68" shape="2488.20,3326.83 2487.90,3328.24 2487.30,3328.91 2486.41,3328.83 2485.22,3328.01"/>
    </edge>
    <edge id=":belfast_21" function="internal">
        <lane id=":belfast_21_0" index="0" speed="5.26" length="11.66" shape="2473.46,3331.47 2476.48,3334.56 2477.66,3335.43 2476.99,3334.07 2474.49,3330.49"/>
    </edge>
    <edge id=":belfast_22" function="internal">
        <lane id=":belfast_22_0" index="0" speed="8.27" length="29.25" shape="2473.46,3331.47 2481.52,3339.22 2485.89,3341.34 2486.57,3337.83 2483.55,3328.68"/>
    </edge>
    <edge id=":belfast_23" function="internal">
        <lane id=":belfast_23_0" index="0" speed="8.57" length="30.91" shape="2473.46,3331.47 2481.91,3339.48 2486.68,3341.58 2487.79,3337.76 2485.22,3328.01"/>
    </edge>
    <edge id=":belfast_24" function="internal">
        <lane id=":belfast_24_0" index="0" speed="8.62" length="31.14" shape="2473.46,3331.47 2481.96,3339.52 2486.79,3341.61 2487.96,3337.74 2485.47,3327.92"/>
    </edge>
    <edge id=":belfast_25" function="internal">
        <lane id=":belfast_25_0" index="0" speed="9.76" length="34.01" shape="2473.46,3331.47 2478.43,3338.92 2482.75,3348.97 2484.28,3357.82 2480.82,3361.62"/>
    </edge>
    <edge id=":belfast_26" function="internal">
        <lane id=":belfast_26_0" index="0" speed="8.79" length="30.53" shape="2473.46,3331.47 2478.47,3338.57 2482.91,3347.72 2484.59,3355.25 2481.32,3357.50"/>
    </edge>
    <edge id=":belfast_27" function="internal">
        <lane id=":belfast_27_0" index="0" speed="4.41" length="7.64" shape="2473.46,3331.47 2473.58,3333.03 2472.29,3334.83 2470.42,3336.07 2468.81,3335.94"/>
    </edge>
    <edge id=":belfast_28" function="internal">
        <lane id=":belfast_28_0" index="0" speed="4.37" length="7.14" shape="2473.44,3331.49 2475.45,3333.17 2476.29,3333.57 2475.97,3332.67 2474.49,3330.49"/>
    </edge>
    <edge id=":belfast_29" function="internal">
        <lane id=":belfast_29_0" index="0" speed="7.70" length="24.21" shape="2473.44,3331.49 2480.71,3337.28 2484.83,3338.75 2485.77,3335.88 2483.55,3328.68"/>
    </edge>
    <edge id=":belfast_30" function="internal">
        <lane id=":belfast_30_0" index="0" speed="8.08" length="26.29" shape="2473.44,3331.49 2481.25,3337.63 2485.81,3339.09 2487.14,3335.89 2485.22,3328.01"/>
    </edge>
    <edge id=":belfast_31" function="internal">
        <lane id=":belfast_31_0" index="0" speed="8.14" length="26.59" shape="2473.44,3331.49 2481.32,3337.67 2485.95,3339.13 2487.33,3335.88 2485.47,3327.92"/>
    </edge>
    <edge id=":belfast_32" function="internal">
        <lane id=":belfast_32_0" index="0" speed="9.39" length="32.68" shape="2471.12,3333.72 2476.68,3340.58 2481.79,3349.89 2483.99,3358.09 2480.82,3361.62"/>
    </edge>
    <edge id=":belfast_33" function="internal">
        <lane id=":belfast_33_0" index="0" speed="8.45" length="29.12" shape="2471.12,3333.72 2476.60,3340.16 2481.77,3348.55 2484.16,3355.47 2481.32,3357.50"/>
    </edge>
    <edge id=":belfast_34" function="internal">
        <lane id=":belfast_34_0" index="0" speed="3.65" length="4.69" shape="2471.12,3333.72 2471.38,3335.14 2471.07,3335.98 2470.22,3336.25 2468.81,3335.94"/>
    </edge>
    <edge id=":belfast_35" function="internal">
        <lane id=":belfast_35_0" index="0" speed="6.92" length="21.29" shape="2466.37,3339.02 2473.25,3342.89 2475.95,3343.67 2474.47,3341.35 2468.81,3335.94"/>
    </edge>
    <edge id=":belfast_36" function="internal">
        <lane id=":belfast_36_0" index="0" speed="8.69" length="32.12" shape="2466.37,3339.02 2476.50,3344.30 2481.23,3344.64 2480.56,3340.03 2474.49,3330.49"/>
    </edge>
    <edge id=":belfast_37" function="internal">
        <lane id=":belfast_37_0" index="0" speed="9.75" length="36.86" shape="2466.37,3339.02 2478.07,3344.79 2484.83,3345.00 2486.66,3339.62 2483.55,3328.68"/>
    </edge>
    <edge id=":belfast_38" function="internal">
        <lane id=":belfast_38_0" index="0" speed="10.00" length="38.03" shape="2466.37,3339.02 2478.30,3344.83 2485.42,3344.93 2487.72,3339.33 2485.22,3328.01"/>
    </edge>
    <edge id=":belfast_39" function="internal">
        <lane id=":belfast_39_0" index="0" speed="10.00" length="38.20" shape="2466.37,3339.02 2478.33,3344.83 2485.50,3344.92 2487.88,3339.28 2485.47,3327.92"/>
    </edge>
    <edge id=":belfast_40" function="internal">
        <lane id=":belfast_40_0" index="0" speed="9.38" length="35.51" shape="2466.37,3339.02 2476.11,3345.80 2483.97,3353.20 2486.64,3359.16 2480.82,3361.62"/>
    </edge>
    <edge id=":belfast_41" function="internal">
        <lane id=":belfast_41_0" index="0" speed="8.46" length="31.54" shape="2466.37,3339.02 2475.28,3345.24 2482.89,3352.02 2485.98,3356.92 2481.32,3357.50"/>
    </edge>
    <edge id=":belfast_42" function="internal">
        <lane id=":belfast_42_0" index="0" speed="8.24" length="27.62" shape="2482.10,3354.39 2485.03,3354.18 2483.80,3351.03 2478.39,3344.95 2468.81,3335.94"/>
    </edge>
    <edge id=":belfast_43" function="internal">
        <lane id=":belfast_43_0" index="0" speed="9.07" length="30.89" shape="2482.10,3354.39 2486.13,3354.02 2486.20,3349.91 2482.32,3342.07 2474.49,3330.49"/>
    </edge>
    <edge id=":belfast_44" function="internal">
        <lane id=":belfast_44_0" index="0" speed="9.70" length="31.62" shape="2482.10,3354.39 2487.15,3354.02 2489.08,3349.61 2487.88,3341.17 2483.55,3328.68"/>
    </edge>
    <edge id=":belfast_45" function="internal">
        <lane id=":belfast_45_0" index="0" speed="9.93" length="32.30" shape="2482.10,3354.39 2487.33,3354.00 2489.59,3349.47 2488.89,3340.81 2485.22,3328.01"/>
    </edge>
    <edge id=":belfast_46" function="internal">
        <lane id=":belfast_46_0" index="0" speed="9.96" length="32.41" shape="2482.10,3354.39 2487.35,3353.99 2489.67,3349.45 2489.04,3340.75 2485.47,3327.92"/>
    </edge>
    <edge id=":belfast_47" function="internal">
        <lane id=":belfast_47_0" index="0" speed="5.08" length="10.23" shape="2482.10,3354.39 2484.14,3355.94 2484.47,3358.37 2483.30,3360.63 2480.82,3361.62"/>
    </edge>
    <edge id=":belfast_48" function="internal">
        <lane id=":belfast_48_0" index="0" speed="3.65" length="4.67" shape="2482.10,3354.39 2483.07,3355.46 2483.26,3356.33 2482.68,3357.01 2481.32,3357.50"/>
    </edge>
    <edge id=":belfast_49" function="internal">
        <lane id=":belfast_49_0" index="0" speed="5.69" length="11.95" shape="2483.57,3366.62 2486.60,3364.43 2487.15,3362.86 2485.22,3361.93 2480.82,3361.62"/>
    </edge>
    <edge id=":belfast_50" function="internal">
        <lane id=":belfast_50_0" index="0" speed="6.66" length="15.27" shape="2483.57,3366.62 2487.27,3363.79 2488.13,3361.33 2486.15,3359.23 2481.32,3357.50"/>
    </edge>
    <edge id=":belfast_51" function="internal">
        <lane id=":belfast_51_0" index="0" speed="10.00" length="38.41" shape="2483.57,3366.62 2487.05,3362.12 2485.75,3355.50 2479.67,3346.78 2468.81,3335.94"/>
    </edge>
    <edge id=":belfast_52" function="internal">
        <lane id=":belfast_52_0" index="0" speed="10.00" length="40.92" shape="2483.57,3366.62 2487.54,3361.70 2487.35,3354.03 2483.00,3343.63 2474.49,3330.49"/>
    </edge>
    <edge id=":belfast_53" function="internal">
        <lane id=":belfast_53_0" index="0" speed="10.00" length="40.77" shape="2483.57,3366.62 2488.23,3361.51 2489.78,3353.49 2488.22,3342.54 2483.55,3328.68"/>
    </edge>
    <edge id=":belfast_54" function="internal">
        <lane id=":belfast_54_0" index="0" speed="10.00" length="41.29" shape="2483.57,3366.62 2488.36,3361.46 2490.23,3353.30 2489.18,3342.15 2485.22,3328.01"/>
    </edge>
    <edge id=":belfast_55" function="internal">
        <lane id=":belfast_55_0" index="0" speed="10.00" length="41.37" shape="2483.57,3366.62 2488.38,3361.45 2490.29,3353.27 2489.33,3342.10 2485.47,3327.92"/>
    </edge>
    <edge id=":bray_0" function="internal">
        <lane id=":bray_0_0" index="0" speed="10.00" length="27.42" shape="2440.29,1656.91 2444.42,1660.12 2445.92,1665.24 2444.78,1672.29 2441.01,1681.24"/>
    </edge>
    <edge id=":bray_1" function="internal">
        <lane id=":bray_1_0" index="0" speed="10.00" length="45.06" shape="2440.29,1656.91 2442.26,1661.46 2438.74,1670.11 2431.15,1681.71 2420.90,1695.15"/>
    </edge>
    <edge id=":bray_2" function="internal">
        <lane id=":bray_2_0" index="0" speed="10.00" length="44.03" shape="2440.29,1656.91 2441.82,1661.17 2436.70,1668.70 2426.89,1678.41 2414.30,1689.22"/>
    </edge>
    <edge id=":bray_3" function="internal">