<?xml version="1.0" encoding="UTF-8"?>

<routes xmlns:xsi="http://www.w3.org/2001/XMLSchema-instance" xsi:noNamespaceSchemaLocation="http://sumo.dlr.de/xsd/routes_file.xsd">

	<trip id="t_0" depart="0.0" fromJunction="kilkenny" toJunction="dublin" />
	<trip id="t_1" depart="0.1" fromJunction="dublin" toJunction="ennis" />
	<trip id="t_2" depart="0.2" fromJunction="limerick" toJunction="dublin" />
	<trip id="t_3" depart="0.3" fromJunction="letterkenny" toJunction="dublin" />
	<trip id="t_4" depart="0.4" fromJunction="enniskillen" toJunction="cavan" />
	<trip id="t_5" depart="0.5" fromJunction="navan" toJunction="dublin" />
	<trip id="t_6" depart="0.6" fromJunction="galway" toJunction="dublin" />
	<trip id="t_7" depart="0.7" fromJunction="limerick" toJunction="dublin" />
	<trip id="t_8" depart="0.8" fromJunction="omagh" toJunction="carlow" />
	<trip id="t_9" depart="0.9" fromJunction="wexford" toJunction="derry" />
	<trip id="t_10" depart="1.0" fromJunction="cavan" toJunction="limerick" />
	<trip id="t_11" depart="1.1" fromJunction="athlone" toJunction="clonmel" />
	<trip id="t_12" depart="1.2" fromJunction="tralee" toJunction="castlebar" />
	<trip id="t_13" depart="1.3" fromJunction="cork" toJunction="waterford" />
	<trip id="t_14" depart="1.4" fromJunction="dublin" toJunction="derry" />
	<trip id="t_15" depart="1.5" fromJunction="tullamore" toJunction="limerick" />
	<trip id="t_16" depart="1.6" fromJunction="naas" toJunction="cavan" />
	<trip id="t_17" depart="1.7" fromJunction="belfast" toJunction="omagh" />
	<trip id="t_18" depart="1.8" fromJunction="carlow" toJunction="limerick" />
	<trip id="t_19" depart="1.9" fromJunction="limerick" toJunction="derry" />
	<trip id="t_20" depart="2.0" fromJunction="dublin" toJunction="omagh" />
	<trip id="t_21" depart="2.1" fromJunction="limerick" toJunction="bray" />
	<trip id="t_22" depart="2.2" fromJunction="limerick" toJunction="dundalk" />
	<trip id="t_23" depart="2.3" fromJunction="tullamore" toJunction="wexford" />
	<trip id="t_24" depart="2.4" fromJunction="derry" toJunction="antrim" />
	<trip id="t_25" depart="2.5" fromJunction="limerick" toJunction="dublin" />
	<trip id="t_26" depart="2.6" fromJunction="dundalk" toJunction="cork" />
	<trip id="t_27" depart="2.7" fromJunction="dublin" toJunction="cork" />
	<trip id="t_28" depart="2.8" fromJunction="belfast" toJunction="dublin" />
	<trip id="t_29" depart="2.9" fromJunction="craigavon" toJunction="tullamore" />
	<trip id="t_30" depart="3.0" fromJunction="ennis" toJunction="omagh" />
	<trip id="t_31" depart="3.1" fromJunction="dublin" toJunction="carrick" />
	<trip id="t_32" depart="3.2" fromJunction="tralee" toJunction="letterkenny" />
	<trip id="t_33" depart="3.3" fromJunction="belfast" toJunction="bray" />
	<trip id="t_34" depart="3.4" fromJunction="belfast" toJunction="roscommon" />
	<trip id="t_35" depart="3.5" fromJunction="dublin" toJunction="galway" />
	<trip id="t_36" depart="3.6" fromJunction="tralee" toJunction="monaghan" />
	<trip id="t_37" depart="3.7" fromJunction="letterkenny" toJunction="dublin" />
	<trip id="t_38" depart="3.8" fromJunction="dublin" toJunction="cavan" />
	<trip id="t_39" depart="3.9" fromJunction="carrick" toJunction="cork" />
	<trip id="t_40" depart="4.0" fromJunction="derry" toJunction="tullamore" />
	<trip id="t_41" depart="4.1" fromJunction="dublin" toJunction="clonmel" />
	<trip id="t_42" depart="4.2" fromJunction="longford" toJunction="kilkenny" />
	<trip id="t_43" depart="4.3" fromJunction="cork" toJunction="carlow" />
	<trip id="t_44" depart="4.4" fromJunction="athlone" toJunction="navan" />
	<trip id="t_45" depart="4.5" fromJunction="derry" toJunction="limerick" />
	<trip id="t_46" depart="4.6" fromJunction="clonmel" toJunction="sligo" />
	<trip id="t_47" depart="4.7" fromJunction="letterkenny" toJunction="belfast" />
	<trip id="t_48" depart="4.8" fromJunction="naas" toJunction="limerick" />
	<trip id="t_49" depart="4.9" fromJunction="antrim" toJunction="cork" />
	<trip id="t_50" depart="5.0" fromJunction="derry" toJunction="dublin" />
	<trip id="t_51" depart="5.1" fromJunction="portlaoise" toJunction="bray" />
	<trip id="t_52" depart="5.2" fromJunction="belfast" toJunction="omagh" />
	<trip id="t_53" depart="5.3" fromJunction="carlow" toJunction="cork" />
	<trip id="t_54" depart="5.4" fromJunction="castlebar" toJunction="limerick" />
	<trip id="t_55" depart="5.5" fromJunction="galway" toJunction="belfast" />
	<trip id="t_56" depart="5.6" fromJunction="derry" toJunction="galway" />
	<trip id="t_57" depart="5.7" fromJunction="belfast" toJunction="tralee" />
	<trip id="t_58" depart="5.8" fromJunction="athlone" toJunction="clonmel" />
	<trip id="t_59" depart="5.9" fromJunction="derry" toJunction="tullamore" />
	<trip id="t_60" depart="6.0" fromJunction="waterford" toJunction="dublin" />
	<trip id="t_61" depart="6.1" fromJunction="galway" toJunction="cork" />
	<trip id="t_62" depart="6.2" fromJunction="dublin" toJunction="longford" />
	<trip id="t_63" depart="6.3" fromJunction="clonmel" toJunction="dublin" />
	<trip id="t_64" depart="6.4" fromJunction="galway" toJunction="dublin" />
	<trip id="t_65" depart="6.5" fromJunction="galway" toJunction="cavan" />
	<trip id="t_66" depart="6.6" fromJunction="dublin" toJunction="cork" />
	<trip id="t_67" depart="6.7" fromJunction="tralee" toJunction="omagh" />
	<trip id="t_68" depart="6.8" fromJunction="kilkenny" toJunction="navan" />
	<trip id="t_69" depart="6.9" fromJunction="limerick" toJunction="belfast" />
	<trip id="t_70" depart="7.0" fromJunction="carlow" toJunction="limerick" />
	<trip id="t_71" depart="7.1" fromJunction="monaghan" toJunction="limerick" />
	<trip id="t_72" depart="7.2" fromJunction="ennis" toJunction="cork" />
	<trip id="t_73" depart="7.3" fromJunction="carlow" toJunction="limerick" />
	<trip id="t_74" depart="7.4" fromJunction="longford" toJunction="castlebar" />
	<trip id="t_75" depart="7.5" fromJunction="derry" toJunction="dublin" />
	<trip id="t_76" depart="7.6" fromJunction="belfast" toJunction="dublin" />
	<trip id="t_77" depart="7.7" fromJunction="dublin" toJunction="castlebar" />
	<trip id="t_78" depart="7.8" fromJunction="dublin" toJunction="navan" />
	<trip id="t_79" depart="7.9" fromJunction="dublin" toJunction="derry" />
	<trip id="t_80" depart="8.0" fromJunction="navan" toJunction="sligo" />
	<trip id="t_81" depart="8.1" fromJunction="belfast" toJunction="dublin" />
	<trip id="t_82" depart="8.2" fromJunction="dublin" toJunction="limerick" />
	<trip id="t_83" depart="8.3" fromJunction="limerick" toJunction="longford" />
	<trip id="t_84" depart="8.4" fromJunction="belfast" toJunction="clonmel" />
	<trip id="t_85" depart="8.5" fromJunction="dublin" toJunction="longford" />
	<trip id="t_86" depart="8.6" fromJunction="ennis" toJunction="kilkenny" />
	<trip id="t_87" depart="8.7" fromJunction="athlone" toJunction="cork" />
	<trip id="t_88" depart="8.8" fromJunction="cork" toJunction="dublin" />
	<trip id="t_89" depart="8.9" fromJunction="monaghan" toJunction="dublin" />
	<trip id="t_90" depart="9.0" fromJunction="craigavon" toJunction="clonmel" />
	<trip id="t_91" depart="9.1" fromJunction="derry" toJunction="dublin" />
	<trip id="t_92" depart="9.2" fromJunction="dundalk" toJunction="cork" />
	<trip id="t_93" depart="9.3" fromJunction="cork" toJunction="longford" />
	<trip id="t_94" depart="9.4" fromJunction="limerick" toJunction="tullamore" />
	<trip id="t_95" depart="9.5" fromJunction="roscommon" toJunction="kilkenny" />
	<trip id="t_96" depart="9.6" fromJunction="dublin" toJunction="carrick" />
	<trip id="t_97" depart="9.7" fromJunction="enniskillen" toJunction="dublin" />
	<trip id="t_98" depart="9.8" fromJunction="derry" toJunction="enniskillen" />
	<trip id="t_99" depart="9.9" fromJunction="monaghan" toJunction="dublin" />
	<trip id="t_100" depart="10.0" fromJunction="dublin" toJunction="craigavon" />
	<trip id="t_101" depart="10.1" fromJunction="cork" toJunction="belfast" />
	<trip id="t_102" depart="10.2" fromJunction="craigavon" toJunction="dublin" />
	<trip id="t_103" depart="10.3" fromJunction="carrick" toJunction="omagh" />
	<trip id="t_104" depart="10.4" fromJunction="portlaoise" toJunction="wexford" />
	<trip id="t_105" depart="10.5" fromJunction="dundalk" toJunction="galway" />
	<trip id="t_106" depart="10.6" fromJunction="wexford" toJunction="dublin" />
	<trip id="t_107" depart="10.7" fromJunction="cork" toJunction="letterkenny" />
	<trip id="t_108" depart="10.8" fromJunction="letterkenny" toJunction="dublin" />
	<trip id="t_109" depart="10.9" fromJunction="cork" toJunction="carrick" />
	<trip id="t_110" depart="11.0" fromJunction="tralee" toJunction="limerick" />
	<trip id="t_111" depart="11.1" fromJunction="roscommon" toJunction="craigavon" />
	<trip id="t_112" depart="11.2" fromJunction="dublin" toJunction="belfast" />
	<trip id="t_113" depart="11.3" fromJunction="limerick" toJunction="dublin" />
	<trip id="t_114" depart="11.4" fromJunction="roscommon" toJunction="derry" />
	<trip id="t_115" depart="11.5" fromJunction="limerick" toJunction="belfast" />
	<trip id="t_116" depart="11.6" fromJunction="belfast" toJunction="dublin" />
	<trip id="t_117" depart="11.7" fromJunction="dublin" toJunction="cavan" />
	<trip id="t_118" depart="11.8" fromJunction="omagh" toJunction="belfast" />
	<trip id="t_119" depart="11.9" fromJunction="dundalk" toJunction="omagh" />
	<trip id="t_120" depart="12.0" fromJunction="dublin" toJunction="derry" />
	<trip id="t_121" depart="12.1" fromJunction="navan" toJunction="wexford" />
	<trip id="t_122" depart="12.2" fromJunction="cork" toJunction="galway" />
	<trip id="t_123" depart="12.3" fromJunction="antrim" toJunction="bray" />
	<trip id="t_124" depart="12.4" fromJunction="limerick" toJunction="enniskillen" />
	<trip id="t_125" depart="12.5" fromJunction="limerick" toJunction="cavan" />
	<trip id="t_126" depart="12.6" fromJunction="galway" toJunction="limerick" />
	<trip id="t_127" depart="12.7" fromJunction="navan" toJunction="omagh" />
	<trip id="t_128" depart="12.8" fromJunction="dublin" toJunction="ennis" />
	<trip id="t_129" depart="12.9" fromJunction="galway" toJunction="bray" />
	<trip id="t_130" depart="13.0" fromJunction="dublin" toJunction="omagh" />
	<trip id="t_131" depart="13.1" fromJunction="dublin" toJunction="enniskillen" />
	<trip id="t_132" depart="13.2" fromJunction="belfast" toJunction="kilkenny" />
	<trip id="t_133" depart="13.3" fromJunction="omagh" toJunction="limerick" />
	<trip id="t_134" depart="13.4" fromJunction="longford" toJunction="antrim" />
	<trip id="t_135" depart="13.5" fromJunction="naas" toJunction="dublin" />
	<trip id="t_136" depart="13.6" fromJunction="galway" toJunction="naas" />
	<trip id="t_137" depart="13.7" fromJunction="dundalk" toJunction="dublin" />
	<trip id="t_138" depart="13.8" fromJunction="limerick" toJunction="galway" />
	<trip id="t_139" depart="13.9" fromJunction="castlebar" toJunction="letterkenny" />
	<trip id="t_140" depart="14.0" fromJunction="castlebar" toJunction="longford" />
	<trip id="t_141" depart="14.1" fromJunction="galway" toJunction="carlow" />
	<trip id="t_142" depart="14.2" fromJunction="galway" toJunction="navan" />
	<trip id="t_143" depart="14.3" fromJunction="sligo" toJunction="dublin" />
	<trip id="t_144" depart="14.4" fromJunction="longford" toJunction="limerick" />
	<trip id="t_145" depart="14.5" fromJunction="dublin" toJunction="letterkenny" />
	<trip id="t_146" depart="14.6" fromJunction="dublin" toJunction="portlaoise" />
	<trip id="t_147" depart="14.7" fromJunction="derry" toJunction="roscommon" />
	<trip id="t_148" depart="14.8" fromJunction="antrim" toJunction="cork" />
	<trip id="t_149" depart="14.9" fromJunction="carrick" toJunction="monaghan" />
	<trip id="t_150" depart="15.0" fromJunction="antrim" toJunction="derry" />
	<trip id="t_151" depart="15.1" fromJunction="omagh" toJunction="limerick" />
	<trip id="t_152" depart="15.2" fromJunction="dublin" toJunction="belfast" />
	<trip id="t_153" depart="15.3" fromJunction="ennis" toJunction="belfast" />
	<trip id="t_154" depart="15.4" fromJunction="wexford" toJunction="portlaoise" />
	<trip id="t_155" depart="15.5" fromJunction="derry" toJunction="dublin" />
	<trip id="t_156" depart="15.6" fromJunction="dublin" toJunction="athlone" />
	<trip id="t_157" depart="15.7" fromJunction="derry" toJunction="omagh" />
	<trip id="t_158" depart="15.8" fromJunction="cork" toJunction="roscommon" />
	<trip id="t_159" depart="15.9" fromJunction="limerick" toJunction="cork" />
	<trip id="t_160" depart="16.0" fromJunction="derry" toJunction="dublin" />
	<trip id="t_161" depart="16.1" fromJunction="dublin" toJunction="tralee" />
	<trip id="t_162" depart="16.2" fromJunction="derry" toJunction="clonmel" />
	<trip id="t_163" depart="16.3" fromJunction="belfast" toJunction="carrick" />
	<trip id="t_164" depart="16.4" fromJunction="roscommon" toJunction="cork" />
	<trip id="t_165" depart="16.5" fromJunction="clonmel" toJunction="limerick" />
	<trip id="t_166" depart="16.6" fromJunction="wexford" toJunction="belfast" />
	<trip id="t_167" depart="16.7" fromJunction="dublin" toJunction="roscommon" />
	<trip id="t_168" depart="16.8" fromJunction="dublin" toJunction="galway" />
	<trip id="t_169" depart="16.9" fromJunction="letterkenny" toJunction="cork" />
	<trip id="t_170" depart="17.0" fromJunction="cork" toJunction="dublin" />
	<trip id="t_171" depart="17.1" fromJunction="omagh" toJunction="kilkenny" />
	<trip id="t_172" depart="17.2" fromJunction="limerick" toJunction="derry" />
	<trip id="t_173" depart="17.3" fromJunction="longford" toJunction="wexford" />
	<trip id="t_174" depart="17.4" fromJunction="ennis" toJunction="belfast" />
	<trip id="t_175" depart="17.5" fromJunction="derry" toJunction="naas" />
	<trip id="t_176" depart="17.6" fromJunction="carlow" toJunction="cork" />
	<trip id="t_177" depart="17.7" fromJunction="wexford" toJunction="dublin" />
	<trip id="t_178" depart="17.8" fromJunction="tralee" toJunction="athlone" />
	<trip id="t_179" depart="17.9" fromJunction="carlow" toJunction="bray" />
	<trip id="t_180" depart="18.0" fromJunction="derry" toJunction="cork" />
	<trip id="t_181" depart="18.1" fromJunction="naas" toJunction="limerick" />
	<trip id="t_182" depart="18.2" fromJunction="dublin" toJunction="longford" />
	<trip id="t_183" depart="18.3" fromJunction="ennis" toJunction="belfast" />
	<trip id="t_184" depart="18.4" fromJunction="portlaoise" toJunction="dublin" />
	<trip id="t_185" depart="18.5" fromJunction="carrick" toJunction="antrim" />
	<trip id="t_186" depart="18.6" fromJunction="dublin" toJunction="belfast" />
	<trip id="t_187" depart="18.7" fromJunction="dublin" toJunction="galway" />
	<trip id="t_188" depart="18.8" fromJunction="belfast" toJunction="navan" />
	<trip id="t_189" depart="18.9" fromJunction="clonmel" toJunction="belfast" />
	<trip id="t_190" depart="19.0" fromJunction="athlone" toJunction="kilkenny" />
	<trip id="t_191" depart="19.1" fromJunction="dublin" toJunction="belfast" />
	<trip id="t_192" depart="19.2" fromJunction="portlaoise" toJunction="roscommon" />
	<trip id="t_193" depart="19.3" fromJunction="tullamore" toJunction="portlaoise" />
	<trip id="t_194" depart="19.4" fromJunction="bray" toJunction="omagh" />
	<trip id="t_195" depart="19.5" fromJunction="belfast" toJunction="derry" />
	<trip id="t_196" depart="19.6" fromJunction="dublin" toJunction="galway" />
	<trip id="t_197" depart="19.7" fromJunction="sligo" toJunction="tralee" />
	<trip id="t_198" depart="19.8" fromJunction="roscommon" toJunction="cavan" />
	<trip id="t_199" depart="19.9" fromJunction="ennis" toJunction="dublin" />
	<trip id="t_200" depart="20.0" fromJunction="galway" toJunction="dublin" />
	<trip id="t_201" depart="20.1" fromJunction="monaghan" toJunction="dublin" />
	<trip id="t_202" depart="20.2" fromJunction="limerick" toJunction="belfast" />
	<trip id="t_203" depart="20.3" fromJunction="limerick" toJunction="waterford" />
	<trip id="t_204" depart="20.4" fromJunction="carrick" toJunction="limerick" />
	<trip id="t_205" depart="20.5" fromJunction="sligo" toJunction="dublin" />
	<trip id="t_206" depart="20.6" fromJunction="galway" toJunction="belfast" />
	<trip id="t_207" depart="20.7" fromJunction="derry" toJunction="cavan" />
	<trip id="t_208" depart="20.8" fromJunction="dublin" toJunction="carrick" />
	<trip id="t_209" depart="20.9" fromJunction="belfast" toJunction="ennis" />
	<trip id="t_210" depart="21.0" fromJunction="kilkenny" toJunction="cork" />
	<trip id="t_211" depart="21.1" fromJunction="dublin" toJunction="carlow" />
	<trip id="t_212" depart="21.2" fromJunction="dublin" toJunction="antrim" />
	<trip id="t_213" depart="21.3" fromJunction="limerick" toJunction="belfast" />
	<trip id="t_214" depart="21.4" fromJunction="dublin" toJunction="wexford" />
	<trip id="t_215" depart="21.5" fromJunction="dublin" toJunction="cork" />
	<trip id="t_216" depart="21.6" fromJunction="limerick" toJunction="dublin" />
	<trip id="t_217" depart="21.7" fromJunction="belfast" toJunction="cork" />
	<trip id="t_218" depart="21.8" fromJunction="omagh" toJunction="limerick" />
	<trip id="t_219" depart="21.9" fromJunction="dublin" toJunction="cork" />
	<trip id="t_220" depart="22.0" fromJunction="kilkenny" toJunction="cork" />
	<trip id="t_221" depart="22.1" fromJunction="castlebar" toJunction="carrick" />
	<trip id="t_222" depart="22.2" fromJunction="wexford" toJunction="carrick" />
	<trip id="t_223" depart="22.3" fromJunction="roscommon" toJunction="dublin" />
	<trip id="t_224" depart="22.4" fromJunction="dublin" toJunction="belfast" />
	<trip id="t_225" depart="22.5" fromJunction="cavan" toJunction="dublin" />
	<trip id="t_226" depart="22.6" fromJunction="antrim" toJunction="derry" />
	<trip id="t_227" depart="22.7" fromJunction="belfast" toJunction="dublin" />
	<trip id="t_228" depart="22.8" fromJunction="ennis" toJunction="dundalk" />
	<trip id="t_229" depart="22.9" fromJunction="belfast" toJunction="cork" />
	<trip id="t_230" depart="23.0" fromJunction="castlebar" toJunction="belfast" />
	<trip id="t_231" depart="23.1" fromJunction="carlow" toJunction="dublin" />
	<trip id="t_232" depart="23.2" fromJunction="omagh" toJunction="dublin" />
	<trip id="t_233" depart="23.3" fromJunction="limerick" toJunction="castlebar" />
	<trip id="t_234" depart="23.4" fromJunction="galway" toJunction="sligo" />
	<trip id="t_235" depart="23.5" fromJunction="limerick" toJunction="dublin" />
	<trip id="t_236" depart="23.6" fromJunction="derry" toJunction="wexford" />
	<trip id="t_237" depart="23.7" fromJunction="belfast" toJunction="dublin" />
	<trip id="t_238" depart="23.8" fromJunction="galway" toJunction="belfast" />
	<trip id="t_239" depart="23.9" fromJunction="portlaoise" toJunction="ennis" />
	<trip id="t_240" depart="24.0" fromJunction="galway" toJunction="derry" />
	<trip id="t_241" depart="24.1" fromJunction="belfast" toJunction="derry" />
	<trip id="t_242" depart="24.2" fromJunction="limerick" toJunction="galway" />
	<trip id="t_243" depart="24.3" fromJunction="dublin" toJunction="longford" />
	<trip id="t_244" depart="24.4" fromJunction="belfast" toJunction="derry" />
	<trip id="t_245" depart="24.5" fromJunction="dundalk" toJunction="derry" />
	<trip id="t_246" depart="24.6" fromJunction="dublin" toJunction="omagh" />
	<trip id="t_247" depart="24.7" fromJunction="belfast" toJunction="galway" />
	<trip id="t_248" depart="24.8" fromJunction="cavan" toJunction="dublin" />
	<trip id="t_249" depart="24.9" fromJunction="derry" toJunction="kilkenny" />
	<trip id="t_250" depart="25.0" fromJunction="dublin" toJunction="galway" />
	<trip id="t_251" depart="25.1" fromJunction="athlone" toJunction="dublin" />
	<trip id="t_252" depart="25.2" fromJunction="belfast" toJunction="galway" />
	<trip id="t_253" depart="25.3" fromJunction="belfast" toJunction="limerick" />
	<trip id="t_254" depart="25.4" fromJunction="kilkenny" toJunction="derry" />
	<trip id="t_255" depart="25.5" fromJunction="belfast" toJunction="limerick" />
	<trip id="t_256" depart="25.6" fromJunction="dublin" toJunction="castlebar" />
	<trip id="t_257" depart="25.7" fromJunction="monaghan" toJunction="belfast" />
	<trip id="t_258" depart="25.8" fromJunction="sligo" toJunction="galway" />
	<trip id="t_259" depart="25.9" fromJunction="carlow" toJunction="tralee" />
	<trip id="t_260" depart="26.0" fromJunction="dublin" toJunction="cork" />
	<trip id="t_261" depart="26.1" fromJunction="cork" toJunction="navan" />
	<trip id="t_262" depart="26.2" fromJunction="galway" toJunction="roscommon" />
	<trip id="t_263" depart="26.3" fromJunction="cavan" toJunction="cork" />
	<trip id="t_264" depart="26.4" fromJunction="naas" toJunction="tullamore" />
	<trip id="t_265" depart="26.5" fromJunction="cork" toJunction="antrim" />
	<trip id="t_266" depart="26.6" fromJunction="sligo" toJunction="limerick" />
	<trip id="t_267" depart="26.7" fromJunction="dublin" toJunction="cavan" />
	<trip id="t_268" depart="26.8" fromJunction="cork" toJunction="belfast" />
	<trip id="t_269" depart="26.9" fromJunction="cork" toJunction="athlone" />
	<trip id="t_270" depart="27.0" fromJunction="longford" toJunction="castlebar" />
	<trip id="t_271" depart="27.1" fromJunction="limerick" toJunction="belfast" />
	<trip id="t_272" depart="27.2" fromJunction="carrick" toJunction="derry" />
	<trip id="t_273" depart="27.3" fromJunction="belfast" toJunction="dublin" />
	<trip id="t_274" depart="27.4" fromJunction="derry" toJunction="wexford" />
	<trip id="t_275" depart="27.5" fromJunction="clonmel" toJunction="cork" />
	<trip id="t_276" depart="27.6" fromJunction="limerick" toJunction="monaghan" />
	<trip id="t_277" depart="27.7" fromJunction="athlone" toJunction="dundalk" />
	<trip id="t_278" depart="27.8" fromJunction="portlaoise" toJunction="belfast" />
	<trip id="t_279" depart="27.9" fromJunction="portlaoise" toJunction="belfast" />
	<trip id="t_280" depart="28.0" fromJunction="limerick" toJunction="dublin" />
	<trip id="t_281" depart="28.1" fromJunction="wexford" toJunction="carrick" />
	<trip id="t_282" depart="28.2" fromJunction="tullamore" toJunction="galway" />
	<trip id="t_283" depart="28.3" fromJunction="craigavon" toJunction="belfast" />
	<trip id="t_284" depart="28.4" fromJunction="carlow" toJunction="navan" />
	<trip id="t_285" depart="28.5" fromJunction="castlebar" toJunction="dublin" />
	<trip id="t_286" depart="28.6" fromJunction="cork" toJunction="dublin" />
	<trip id="t_287" depart="28.7" fromJunction="belfast" toJunction="naas" />
	<trip id="t_288" depart="28.8" fromJunction="bray" toJunction="letterkenny" />
	<trip id="t_289" depart="28.9" fromJunction="belfast" toJunction="longford" />
	<trip id="t_290" depart="29.0" fromJunction="carlow" toJunction="cork" />
	<trip id="t_291" depart="29.1" fromJunction="dublin" toJunction="cork" />
	<trip id="t_292" depart="29.2" fromJunction="castlebar" toJunction="galway" />
	<trip id="t_293" depart="29.3" fromJunction="dublin" toJunction="clonmel" />
	<trip id="t_294" depart="29.4" fromJunction="dublin" toJunction="bray" />
	<trip id="t_295" depart="29.5" fromJunction="dublin" toJunction="derry" />
	<trip id="t_296" depart="29.6" fromJunction="limerick" toJunction="dublin" />
	<trip id="t_297" depart="29.7" fromJunction="belfast" toJunction="galway" />
	<trip id="t_298" depart="29.8" fromJunction="tralee" toJunction="cork" />
	<trip id="t_299" depart="29.9" fromJunction="dundalk" toJunction="waterford" />
	<trip id="t_300" depart="30.0" fromJunction="limerick" toJunction="dublin" />
	<trip id="t_301" depart="30.1" fromJunction="dublin" toJunction="limerick" />
	<trip id="t_302" depart="30.2" fromJunction="letterkenny" toJunction="cavan" />
	<trip id="t_303" depart="30.3" fromJunction="athlone" toJunction="ennis" />
	<trip id="t_304" depart="30.4" fromJunction="kilkenny" toJunction="belfast" />
	<trip id="t_305" depart="30.5" fromJunction="dublin" toJunction="dundalk" />
	<trip id="t_306" depart="30.6" fromJunction="belfast" toJunction="cork" />
	<trip id="t_307" depart="30.7" fromJunction="naas" toJunction="carlow" />
	<trip id="t_308" depart="30.8" fromJunction="tralee" toJunction="galway" />
	<trip id="t_309" depart="30.9" fromJunction="cork" toJunction="galway" />
	<trip id="t_310" depart="31.0" fromJunction="cork" toJunction="belfast" />
	<trip id="t_311" depart="31.1" fromJunction="dublin" toJunction="antrim" />
	<trip id="t_312" depart="31.2" fromJunction="castlebar" toJunction="athlone" />
	<trip id="t_313" depart="31.3" fromJunction="tralee" toJunction="derry" />
	<trip id="t_314" depart="31.4" fromJunction="galway" toJunction="cavan" />
	<trip id="t_315" depart="31.5" fromJunction="dublin" toJunction="cork" />
	<trip id="t_316" depart="31.6" fromJunction="ennis" toJunction="cork" />
	<trip id="t_317" depart="31.7" fromJunction="limerick" toJunction="waterford" />
	<trip id="t_318" depart="31.8" fromJunction="waterford" toJunction="cork" />
	<trip id="t_319" depart="31.9" fromJunction="dublin" toJunction="castlebar" />
	<trip id="t_320" depart="32.0" fromJunction="tralee" toJunction="navan" />
	<trip id="t_321" depart="32.1" fromJunction="cork" toJunction="athlone" />
	<trip id="t_322" depart="32.2" fromJunction="athlone" toJunction="waterford" />
	<trip id="t_323" depart="32.3" fromJunction="dublin" toJunction="cork" />
	<trip id="t_324" depart="32.4" fromJunction="galway" toJunction="limerick" />
	<trip id="t_325" depart="32.5" fromJunction="sligo" toJunction="belfast" />
	<trip id="t_326" depart="32.6" fromJunction="belfast" toJunction="dublin" />
	<trip id="t_327" depart="32.7" fromJunction="bray" toJunction="dublin" />
	<trip id="t_328" depart="32.8" fromJunction="limerick" toJunction="portlaoise" />
	<trip id="t_329" depart="32.9" fromJunction="galway" toJunction="dublin" />
	<trip id="t_330" depart="33.0" fromJunction="dublin" toJunction="clonmel" />
	<trip id="t_331" depart="33.1" fromJunction="cork" toJunction="dublin" />
	<trip id="t_332" depart="33.2" fromJunction="kilkenny" toJunction="navan" />
	<trip id="t_333" depart="33.3" fromJunction="ennis" toJunction="dublin" />
	<trip id="t_334" depart="33.4" fromJunction="dublin" toJunction="waterford" />
	<trip id="t_335" depart="33.5" fromJunction="derry" toJunction="belfast" />
	<trip id="t_336" depart="33.6" fromJunction="carrick" toJunction="belfast" />
	<trip id="t_337" depart="33.7" fromJunction="belfast" toJunction="portlaoise" />
	<trip id="t_338" depart="33.8" fromJunction="galway" toJunction="dublin" />
	<trip id="t_339" depart="33.9" fromJunction="dublin" toJunction="portlaoise" />
	<trip id="t_340" depart="34.0" fromJunction="omagh" toJunction="derry" />
	<trip id="t_341" depart="34.1" fromJunction="cork" toJunction="limerick" />
	<trip id="t_342" depart="34.2" fromJunction="tullamore" toJunction="belfast" />
	<trip id="t_343" depart="34.3" fromJunction="carlow" toJunction="cavan" />
	<trip id="t_344" depart="34.4" fromJunction="navan" toJunction="dublin" />
	<trip id="t_345" depart="34.5" fromJunction="dublin" toJunction="cork" />
	<trip id="t_346" depart="34.6" fromJunction="roscommon" toJunction="dundalk" />
	<trip id="t_347" depart="34.7" fromJunction="navan" toJunction="dublin" />
	<trip id="t_348" depart="34.8" fromJunction="belfast" toJunction="carlow" />
	<trip id="t_349" depart="34.9" fromJunction="dublin" toJunction="wexford" />
	<trip id="t_350" depart="35.0" fromJunction="belfast" toJunction="derry" />
	<trip id="t_351" depart="35.1" fromJunction="cork" toJunction="dublin" />
	<trip id="t_352" depart="35.2" fromJunction="dublin" toJunction="cavan" />
	<trip id="t_353" depart="35.3" fromJunction="omagh" toJunction="cavan" />
	<trip id="t_354" depart="35.4" fromJunction="castlebar" toJunction="dublin" />
	<trip id="t_355" depart="35.5" fromJunction="bray" toJunction="derry" />
	<trip id="t_356" depart="35.6" fromJunction="dublin" toJunction="carrick" />
	<trip id="t_357" depart="35.7" fromJunction="belfast" toJunction="dublin" />
	<trip id="t_358" depart="35.8" fromJunction="belfast" toJunction="carrick" />
	<trip id="t_359" depart="35.9" fromJunction="kilkenny" toJunction="naas" />
	<trip id="t_360" depart="36.0" fromJunction="letterkenny" toJunction="enniskillen" />
	<trip id="t_361" depart="36.1" fromJunction="castlebar" toJunction="cork" />
	<trip id="t_362" depart="36.2" fromJunction="dublin" toJunction="naas" />
	<trip id="t_363" depart="36.3" fromJunction="derry" toJunction="cork" />
	<trip id="t_364" depart="36.4" fromJunction="bray" toJunction="derry" />
	<trip id="t_365" depart="36.5" fromJunction="dublin" toJunction="naas" />
	<trip id="t_366" depart="36.6" fromJunction="dublin" toJunction="athlone" />
	<trip id="t_367" depart="36.7" fromJunction="sligo" toJunction="roscommon" />
	<trip id="t_368" depart="36.8" fromJunction="antrim" toJunction="derry" />
	<trip id="t_369" depart="36.9" fromJunction="cavan" toJunction="bray" />
	<trip id="t_370" depart="37.0" fromJunction="dublin" toJunction="roscommon" />
	<trip id="t_371" depart="37.1" fromJunction="dublin" toJunction="derry" />
	<trip id="t_372" depart="37.2" fromJunction="carlow" toJunction="belfast" />
	<trip id="t_373" depart="37.3" fromJunction="letterkenny" toJunction="limerick" />
	<trip id="t_374" depart="37.4" fromJunction="carrick" toJunction="dublin" />
	<trip id="t_375" depart="37.5" fromJunction="derry" toJunction="dublin" />
	<trip id="t_376" depart="37.6" fromJunction="dublin" toJunction="monaghan" />
	<trip id="t_377" depart="37.7" fromJunction="belfast" toJunction="navan" />
	<trip id="t_378" depart="37.8" fromJunction="limerick" toJunction="belfast" />
	<trip id="t_379" depart="37.9" fromJunction="limerick" toJunction="waterford" />
	<trip id="t_380" depart="38.0" fromJunction="craigavon" toJunction="carlow" />
	<trip id="t_381" depart="38.1" fromJunction="galway" toJunction="dublin" />
	<trip id="t_382" depart="38.2" fromJunction="wexford" toJunction="bray" />
	<trip id="t_383" depart="38.3" fromJunction="galway" toJunction="clonmel" />
	<trip id="t_384" depart="38.4" fromJunction="dublin" toJunction="cork" />