<?xml version="1.0" encoding="UTF-8"?>

<!-- generated on 2024-09-30 18:12:36 by Eclipse SUMO netconvert Version 1.19.0
<configuration xmlns:xsi="http://www.w3.org/2001/XMLSchema-instance" xsi:noNamespaceSchemaLocation="http://sumo.dlr.de/xsd/netconvertConfiguration.xsd">

    <input>
        <node-files value="nod.xml"/>
        <edge-files value="edge_xmls/00007.xml"/>
    </input>

    <output>
        <output-file value="networks/00007.net.xml"/>
    </output>

</configuration>
-->

<net version="1.16" junctionCornerDetail="5" limitTurnSpeed="5.50" xmlns:xsi="http://www.w3.org/2001/XMLSchema-instance" xsi:noNamespaceSchemaLocation="http://sumo.dlr.de/xsd/net_file.xsd">

    <location netOffset="-682.00,4368.00" convBoundary="0.00,0.00,2498.00,3881.00" origBoundary="682.00,-4368.00,3180.00,-487.00" projParameter="!"/>

    <edge id=":antrim_0" function="internal">
        <lane id=":antrim_0_0" index="0" speed="3.98" length="5.77" shape="2285.78,3482.32 2285.42,3484.06 2284.69,3484.89 2283.59,3484.80 2282.12,3483.80"/>
    </edge>
    <edge id=":antrim_1" function="internal">
        <lane id=":antrim_1_0" index="0" speed="6.53" length="8.17" shape="2279.75,3490.78 2281.49,3489.42 2282.46,3487.80 2282.67,3485.93 2282.12,3483.80"/>
    </edge>
    <edge id=":athlone_0" function="internal">
        <lane id=":athlone_0_0" index="0" speed="5.66" length="12.30" shape="1243.19,1974.59 1245.63,1971.04 1245.93,1969.23 1244.10,1969.16 1240.13,1970.85"/>
    </edge>
    <edge id=":athlone_1" function="internal">
        <lane id=":athlone_1_0" index="0" speed="10.00" length="27.74" shape="1243.19,1974.59 1259.96,1952.50"/>
    </edge>
    <edge id=":athlone_2" function="internal">
        <lane id=":athlone_2_0" index="0" speed="7.60" length="20.94" shape="1243.19,1974.59 1247.97,1968.90 1252.63,1964.32 1256.22,1962.46 1257.79,1964.92"/>
    </edge>
    <edge id=":belfast_0" function="internal">
        <lane id=":belfast_0_0" index="0" speed="10.00" length="86.15" shape="2498.71,3350.65 2493.77,3351.70 2479.43,3340.19 2458.91,3320.13 2435.42,3295.54"/>
    </edge>
    <edge id=":belfast_1" function="internal">
        <lane id=":belfast_1_0" index="0" speed="10.00" length="85.79" shape="2498.71,3350.65 2493.97,3351.60 2480.16,3339.55 2460.43,3318.72 2437.92,3293.32"/>
    </edge>
    <edge id=":belfast_2" function="internal">
        <lane id=":belfast_2_0" index="0" speed="3.47" length="3.94" shape="2437.81,3293.41 2438.83,3294.49 2439.19,3294.83 2438.88,3294.44 2437.92,3293.32"/>
    </edge>
    <edge id=":belfast_3" function="internal">
        <lane id=":belfast_3_0" index="0" speed="3.65" length="4.67" shape="2437.81,3293.41 2438.01,3294.84 2437.68,3295.67 2436.81,3295.91 2435.42,3295.54"/>
    </edge>
    <edge id=":bray_0" function="internal">
        <lane id=":bray_0_0" index="0" speed="6.20" length="9.05" shape="2438.21,1659.71 2440.70,1659.25 2442.32,1658.10 2443.07,1656.25 2442.94,1653.72"/>
    </edge>
    <edge id=":bray_1" function="internal">
        <lane id=":bray_1_0" index="0" speed="8.50" length="23.89" shape="2438.21,1659.71 2442.52,1661.30 2442.72,1665.83 2440.11,1672.10 2435.98,1678.92"/>
    </edge>
    <edge id=":bray_2" function="internal">
        <lane id=":bray_2_0" index="0" speed="6.72" length="17.13" shape="2438.21,1659.71 2441.31,1660.89 2440.72,1664.06 2437.68,1668.05 2433.46,1671.69"/>
    </edge>
    <edge id=":bray_3" function="internal">
        <lane id=":bray_3_0" index="0" speed="3.52" length="3.98" shape="2435.55,1678.63 2434.92,1679.98 2434.78,1680.48 2435.13,1680.13 2435.98,1678.92"/>
    </edge>
    <edge id=":bray_4" function="internal">
        <lane id=":bray_4_0" index="0" speed="6.04" length="13.86" shape="2435.55,1678.63 2437.77,1673.41 2438.17,1670.51 2436.73,1669.94 2433.46,1671.69"/>
    </edge>
    <edge id=":bray_5" function="internal">
        <lane id=":bray_5_0" index="0" speed="10.00" length="26.15" shape="2435.55,1678.63 2437.77,1673.53 2440.43,1666.33 2442.50,1659.05 2442.94,1653.72"/>
    </edge>
    <edge id=":bray_6" function="internal">
        <lane id=":bray_6_0" index="0" speed="5.77" length="13.11" shape="2440.27,1680.73 2440.94,1676.12 2440.44,1674.29 2438.79,1675.22 2435.98,1678.92"/>
    </edge>
    <edge id=":bray_7" function="internal">
        <lane id=":bray_7_0" index="0" speed="7.12" length="17.87" shape="2440.27,1680.73 2441.10,1674.12 2440.24,1670.41 2437.69,1669.60 2433.46,1671.69"/>
    </edge>
    <edge id=":bray_8" function="internal">
        <lane id=":bray_8_0" index="0" speed="10.00" length="27.21" shape="2440.27,1680.73 2441.25,1675.14 2442.35,1667.23 2443.07,1659.32 2442.94,1653.72"/>
    </edge>
    <edge id=":carlow_0" function="internal">
        <lane id=":carlow_0_0" index="0" speed="10.00" length="33.44" shape="1886.92,1164.60 1884.71,1158.37 1880.50,1149.17 1875.83,1140.20 1872.23,1134.67"/>
    </edge>
    <edge id=":carlow_1" function="internal">
        <lane id=":carlow_1_0" index="0" speed="5.57" length="11.62" shape="1869.49,1138.87 1873.38,1139.91 1875.13,1139.56 1874.75,1137.81 1872.23,1134.67"/>
    </edge>
    <edge id=":carlow_2" function="internal">
        <lane id=":carlow_2_0" index="0" speed="6.61" length="14.42" shape="1872.92,1144.91 1876.08,1144.14 1877.02,1142.17 1875.73,1139.02 1872.23,1134.67"/>
    </edge>
    <edge id=":carlow_3" function="internal">
        <lane id=":carlow_3_0" index="0" speed="10.00" length="32.27" shape="1882.89,1164.93 1881.76,1158.61 1878.89,1149.30 1875.36,1140.24 1872.23,1134.67"/>
    </edge>
    <edge id=":carrick_0" function="internal">
        <lane id=":carrick_0_0" index="0" speed="6.68" length="14.73" shape="1143.26,2575.89 1137.78,2578.44 1134.81,2580.76 1134.34,2582.86 1136.38,2584.73"/>
    </edge>
    <edge id=":carrick_1" function="internal">
        <lane id=":carrick_1_0" index="0" speed="8.57" length="18.68" shape="1143.26,2575.89 1137.00,2578.87 1133.09,2581.93 1131.56,2585.05 1132.38,2588.25"/>
    </edge>
    <edge id=":carrick_2" function="internal">
        <lane id=":carrick_2_0" index="0" speed="10.00" length="23.90" shape="1143.26,2575.89 1135.12,2578.51 1128.75,2579.21 1124.17,2578.01 1121.36,2574.89"/>
    </edge>
    <edge id=":carrick_3" function="internal">
        <lane id=":carrick_3_0" index="0" speed="6.33" length="15.58" shape="1143.26,2575.89 1139.01,2576.21 1135.71,2574.29 1134.29,2571.03 1135.69,2567.34"/>
    </edge>
    <edge id=":carrick_4" function="internal">
        <lane id=":carrick_4_0" index="0" speed="7.42" length="16.39" shape="1141.05,2572.46 1136.26,2576.36 1133.89,2579.71 1133.93,2582.49 1136.38,2584.73"/>
    </edge>
    <edge id=":carrick_5" function="internal">
        <lane id=":carrick_5_0" index="0" speed="9.54" length="19.79" shape="1141.05,2572.46 1135.68,2576.82 1132.44,2580.90 1131.34,2584.71 1132.38,2588.25"/>
    </edge>
    <edge id=":carrick_6" function="internal">
        <lane id=":carrick_6_0" index="0" speed="9.40" length="22.55" shape="1141.05,2572.46 1133.94,2576.71 1128.28,2578.54 1124.09,2577.93 1121.36,2574.89"/>
    </edge>
    <edge id=":carrick_7" function="internal">
        <lane id=":carrick_7_0" index="0" speed="5.20" length="10.83" shape="1141.05,2572.46 1137.79,2573.19 1135.81,2572.59 1135.11,2570.64 1135.69,2567.34"/>
    </edge>
    <edge id=":castlebar_0" function="internal">
        <lane id=":castlebar_0_0" index="0" speed="8.51" length="17.12" shape="304.75,2453.57 302.20,2449.74 301.63,2446.03 303.04,2442.42 306.44,2438.92"/>
    </edge>
    <edge id=":castlebar_1" function="internal">
        <lane id=":castlebar_1_0" index="0" speed="4.42" length="7.41" shape="309.48,2442.98 307.20,2443.11 305.93,2442.47 305.68,2441.08 306.44,2438.92"/>
    </edge>
    <edge id=":castlebar_2" function="internal">
        <lane id=":castlebar_2_0" index="0" speed="5.67" length="9.20" shape="300.15,2436.40 300.92,2439.05 302.23,2440.36 304.07,2440.31 306.44,2438.92"/>
    </edge>
    <edge id=":cavan_0" function="internal">
        <lane id=":cavan_0_0" index="0" speed="10.00" length="0.16" shape="1683.46,2629.56 1683.48,2629.51 1683.49,2629.48 1683.50,2629.45 1683.51,2629.41"/>
    </edge>
    <edge id=":clonmel_0" function="internal">
        <lane id=":clonmel_0_0" index="0" speed="8.13" length="29.20" shape="1407.95,642.17 1401.07,634.09 1397.64,632.05 1397.68,636.03 1401.17,646.05"/>
    </edge>
    <edge id=":clonmel_1" function="internal">
        <lane id=":clonmel_1_0" index="0" speed="8.76" length="32.99" shape="1407.95,642.17 1400.21,633.34 1395.96,631.28 1395.19,635.98 1397.90,647.44"/>
    </edge>
    <edge id=":clonmel_2" function="internal">
        <lane id=":clonmel_2_0" index="0" speed="9.87" length="33.94" shape="1407.95,642.17 1398.19,630.10 1391.03,622.36 1386.46,618.96 1384.49,619.90"/>
    </edge>
    <edge id=":clonmel_3" function="internal">
        <lane id=":clonmel_3_0" index="0" speed="10.00" length="43.32" shape="1407.95,642.17 1402.94,635.70 1394.65,625.06 1386.30,614.47 1381.10,608.17"/>
    </edge>
    <edge id=":cork_0" function="internal">
        <lane id=":cork_0_0" index="0" speed="6.58" length="17.66" shape="827.77,34.35 824.45,27.21 822.11,23.87 820.76,24.34 820.39,28.61"/>
    </edge>
    <edge id=":cork_1" function="internal">
        <lane id=":cork_1_0" index="0" speed="10.00" length="42.16" shape="827.77,34.35 821.93,24.21 816.62,22.71 811.85,29.86 807.61,45.65"/>
    </edge>
    <edge id=":cork_2" function="internal">
        <lane id=":cork_2_0" index="0" speed="10.00" length="44.01" shape="827.77,34.35 821.63,23.94 815.65,22.22 809.84,29.19 804.20,44.84"/>
    </edge>
    <edge id=":cork_3" function="internal">
        <lane id=":cork_3_0" index="0" speed="7.38" length="21.90" shape="831.01,32.79 826.24,24.98 822.88,21.68 820.93,22.89 820.39,28.61"/>
    </edge>
    <edge id=":cork_4" function="internal">
        <lane id=":cork_4_0" index="0" speed="10.00" length="44.57" shape="831.01,32.79 823.81,23.04 817.51,21.94 812.11,29.47 807.61,45.65"/>
    </edge>
    <edge id=":cork_5" function="internal">
        <lane id=":cork_5_0" index="0" speed="10.00" length="46.34" shape="831.01,32.79 823.51,22.84 816.54,21.53 810.11,28.86 804.20,44.84"/>
    </edge>
    <edge id=":cork_6" function="internal">
        <lane id=":cork_6_0" index="0" speed="8.07" length="23.74" shape="825.00,13.06 821.40,10.69 818.89,12.51 817.49,18.50 817.19,28.67"/>
    </edge>
    <edge id=":cork_7" function="internal">
        <lane id=":cork_7_0" index="0" speed="10.00" length="41.89" shape="825.00,13.06 820.53,11.46 816.14,16.37 811.83,27.76 807.61,45.65"/>
    </edge>
    <edge id=":cork_8" function="internal">
        <lane id=":cork_8_0" index="0" speed="10.00" length="42.85" shape="825.00,13.06 820.24,11.34 815.19,16.06 809.84,27.23 804.20,44.84"/>
    </edge>
    <edge id=":cork_9" function="internal">
        <lane id=":cork_9_0" index="0" speed="8.07" length="23.74" shape="825.01,13.05 821.40,10.69 818.89,12.51 817.49,18.50 817.19,28.67"/>
    </edge>
    <edge id=":cork_10" function="internal">
        <lane id=":cork_10_0" index="0" speed="10.00" length="41.90" shape="825.01,13.05 820.53,11.46 816.14,16.36 811.83,27.76 807.61,45.65"/>
    </edge>
    <edge id=":cork_11" function="internal">
        <lane id=":cork_11_0" index="0" speed="10.00" length="42.86" shape="825.01,13.05 820.25,11.34 815.19,16.06 809.84,27.23 804.20,44.84"/>
    </edge>
    <edge id=":craigavon_0" function="internal">
        <lane id=":craigavon_0_0" index="0" speed="10.00" length="13.68" shape="2148.31,3160.09 2142.98,3147.49"/>
    </edge>
    <edge id=":craigavon_1" function="internal">
        <lane id=":craigavon_1_0" index="0" speed="4.26" length="6.94" shape="2147.38,3145.69 2146.95,3147.79 2146.08,3148.79 2144.75,3148.69 2142.98,3147.49"/>
    </edge>
    <edge id=":craigavon_2" function="internal">
        <lane id=":craigavon_2_0" index="0" speed="5.47" length="10.56" shape="2138.82,3150.98 2141.97,3152.60 2143.71,3152.56 2144.05,3150.86 2142.98,3147.49"/>
    </edge>
    <edge id=":derry_0" function="internal">
        <lane id=":derry_0_0" index="0" speed="3.08" length="2.46" shape="1613.33,3868.74 1613.35,3867.85 1613.28,3867.54 1613.10,3867.82 1612.82,3868.69"/>
    </edge>
    <edge id=":derry_1" function="internal">
        <lane id=":derry_1_0" index="0" speed="5.71" length="9.71" shape="1613.33,3868.74 1613.32,3872.71 1613.85,3875.23 1614.91,3876.31 1616.51,3875.95"/>
    </edge>
    <edge id=":derry_2" function="internal">
        <lane id=":derry_2_0" index="0" speed="7.55" length="19.90" shape="1613.33,3868.74 1612.25,3875.07 1609.95,3877.93 1606.44,3877.31 1601.72,3873.22"/>
    </edge>
    <edge id=":derry_3" function="internal">
        <lane id=":derry_3_0" index="0" speed="5.39" length="11.18" shape="1613.33,3868.74 1612.16,3871.28 1609.72,3872.16 1607.06,3871.40 1605.22,3869.01"/>
    </edge>
    <edge id=":derry_4" function="internal">
        <lane id=":derry_4_0" index="0" speed="3.83" length="5.29" shape="1613.33,3868.74 1612.31,3870.01 1611.37,3870.38 1610.51,3869.85 1609.72,3868.42"/>
    </edge>
    <edge id=":dublin_0" function="internal">
        <lane id=":dublin_0_0" index="0" speed="3.43" length="3.46" shape="2311.28,1807.35 2312.34,1808.03 2312.80,1808.14 2312.67,1807.69 2311.95,1806.66"/>
    </edge>
    <edge id=":dublin_1" function="internal">
        <lane id=":dublin_1_0" index="0" speed="5.42" length="10.38" shape="2311.28,1807.35 2314.34,1809.16 2316.08,1809.26 2316.52,1807.66 2315.64,1804.35"/>
    </edge>
    <edge id=":dublin_2" function="internal">
        <lane id=":dublin_2_0" index="0" speed="6.03" length="13.84" shape="2311.28,1807.35 2313.43,1810.31 2313.26,1813.57 2311.17,1816.08 2307.59,1816.80"/>
    </edge>
    <edge id=":dublin_3" function="internal">
        <lane id=":dublin_3_0" index="0" speed="4.42" length="7.66" shape="2311.28,1807.35 2313.20,1808.73 2313.80,1810.07 2313.10,1811.35 2311.08,1812.59"/>
    </edge>
    <edge id=":dublin_4" function="internal">
        <lane id=":dublin_4_0" index="0" speed="5.47" length="10.58" shape="2308.54,1822.14 2311.53,1820.24 2312.37,1818.71 2311.06,1817.56 2307.59,1816.80"/>
    </edge>
    <edge id=":dublin_5" function="internal">
        <lane id=":dublin_5_0" index="0" speed="6.64" length="13.57" shape="2308.54,1822.14 2312.49,1819.59 2314.23,1817.15 2313.76,1814.81 2311.08,1812.59"/>
    </edge>
    <edge id=":dublin_6" function="internal">
        <lane id=":dublin_6_0" index="0" speed="8.62" length="18.95" shape="2308.54,1822.14 2312.88,1819.05 2314.90,1815.43 2314.59,1811.30 2311.95,1806.66"/>
    </edge>
    <edge id=":dublin_7" function="internal">
        <lane id=":dublin_7_0" index="0" speed="10.00" length="21.30" shape="2308.54,1822.14 2313.29,1818.81 2316.05,1814.74 2316.84,1809.91 2315.64,1804.35"/>
    </edge>
    <edge id=":dundalk_0" function="internal">
        <lane id=":dundalk_0_0" index="0" speed="7.09" length="19.99" shape="2230.44,2620.92 2233.75,2621.85 2234.22,2619.91 2231.88,2615.12 2226.72,2607.47"/>
    </edge>
    <edge id=":dundalk_1" function="internal">
        <lane id=":dundalk_1_0" index="0" speed="7.61" length="22.11" shape="2230.44,2620.92 2234.43,2621.97 2235.65,2619.74 2234.13,2614.25 2229.85,2605.49"/>
    </edge>
    <edge id=":dundalk_2" function="internal">
        <lane id=":dundalk_2_0" index="0" speed="7.06" length="15.96" shape="2230.44,2620.92 2235.81,2623.04 2239.43,2623.15 2241.28,2621.25 2241.39,2617.34"/>
    </edge>
    <edge id=":dundalk_3" function="internal">
        <lane id=":dundalk_3_0" index="0" speed="8.45" length="19.13" shape="2230.44,2620.92 2236.44,2623.22 2241.03,2623.41 2244.21,2621.49 2245.97,2617.45"/>
    </edge>
    <edge id=":dundalk_4" function="internal">
        <lane id=":dundalk_4_0" index="0" speed="10.00" length="29.13" shape="2240.63,2632.59 2240.63,2630.01 2238.32,2624.97 2233.68,2617.45 2226.72,2607.47"/>
    </edge>
    <edge id=":dundalk_5" function="internal">
        <lane id=":dundalk_5_0" index="0" speed="10.00" length="29.55" shape="2240.63,2632.59 2240.87,2629.85 2239.15,2624.41 2235.48,2616.30 2229.85,2605.49"/>
    </edge>
    <edge id=":dundalk_6" function="internal">
        <lane id=":dundalk_6_0" index="0" speed="10.00" length="15.57" shape="2240.63,2632.59 2241.68,2630.48 2242.16,2627.24 2242.06,2622.86 2241.39,2617.34"/>
    </edge>
    <edge id=":dundalk_7" function="internal">
        <lane id=":dundalk_7_0" index="0" speed="10.00" length="16.21" shape="2240.63,2632.59 2242.71,2629.32 2244.15,2625.44 2245.17,2621.35 2245.97,2617.45"/>
    </edge>
    <edge id=":ennis_0" function="internal">
        <lane id=":ennis_0_0" index="0" speed="9.11" length="24.39" shape="484.66,1219.69 482.63,1213.00 483.66,1208.11 487.76,1205.04 494.93,1203.76"/>
    </edge>
    <edge id=":ennis_1" function="internal">
        <lane id=":ennis_1_0" index="0" speed="8.21" length="22.91" shape="484.66,1219.69 482.44,1212.93 483.34,1208.74 487.35,1207.13 494.47,1208.08"/>
    </edge>
    <edge id=":ennis_2" function="internal">
        <lane id=":ennis_2_0" index="0" speed="5.19" length="10.52" shape="484.66,1219.69 484.44,1216.92 485.90,1214.77 488.25,1213.92 490.65,1215.03"/>
    </edge>
    <edge id=":ennis_3" function="internal">
        <lane id=":ennis_3_0" index="0" speed="8.16" length="22.85" shape="488.31,1217.21 484.28,1211.62 484.03,1207.52 487.58,1204.90 494.93,1203.76"/>
    </edge>
    <edge id=":ennis_4" function="internal">
        <lane id=":ennis_4_0" index="0" speed="6.31" length="14.91" shape="488.31,1217.21 486.68,1213.69 487.60,1210.40 490.42,1208.23 494.47,1208.08"/>
    </edge>
    <edge id=":ennis_5" function="internal">
        <lane id=":ennis_5_0" index="0" speed="3.65" length="4.67" shape="488.31,1217.21 488.08,1215.79 488.39,1214.95 489.24,1214.70 490.65,1215.03"/>
    </edge>
    <edge id=":ennis_6" function="internal">
        <lane id=":ennis_6_0" index="0" speed="7.31" length="14.46" shape="483.79,1198.33 483.86,1200.91 485.74,1202.68 489.43,1203.63 494.93,1203.76"/>
    </edge>
    <edge id=":ennis_7" function="internal">
        <lane id=":ennis_7_0" index="0" speed="8.43" length="16.10" shape="483.79,1198.33 483.78,1201.39 485.55,1204.03 489.12,1206.26 494.47,1208.08"/>
    </edge>
    <edge id=":ennis_8" function="internal">
        <lane id=":ennis_8_0" index="0" speed="10.00" length="18.80" shape="483.79,1198.33 483.47,1202.09 484.50,1206.12 486.90,1210.43 490.65,1215.03"/>
    </edge>
    <edge id=":enniskillen_0" function="internal">
        <lane id=":enniskillen_0_0" index="0" speed="6.00" length="14.04" shape="1458.29,3046.65 1456.69,3049.76 1453.62,3050.67 1450.33,3049.52 1448.05,3046.41"/>
    </edge>
    <edge id=":enniskillen_1" function="internal">
        <lane id=":enniskillen_1_0" index="0" speed="3.71" length="4.87" shape="1458.29,3046.65 1457.34,3047.81 1456.47,3048.14 1455.68,3047.64 1454.98,3046.31"/>
    </edge>
    <edge id=":galway_0" function="internal">
        <lane id=":galway_0_0" index="0" speed="6.62" length="11.08" shape="474.13,1733.40 474.16,1735.97 475.40,1737.75 477.86,1738.75 481.54,1738.97"/>
    </edge>
    <edge id=":galway_1" function="internal">
        <lane id=":galway_1_0" index="0" speed="10.00" length="20.56" shape="474.13,1733.40 474.47,1736.80 476.82,1740.28 481.17,1743.84 487.52,1747.49"/>
    </edge>
    <edge id=":galway_2" function="internal">
        <lane id=":galway_2_0" index="0" speed="10.00" length="21.55" shape="474.13,1733.40 474.31,1737.12 476.22,1741.28 479.87,1745.88 485.25,1750.93"/>
    </edge>
    <edge id=":galway_3" function="internal">
        <lane id=":galway_3_0" index="0" speed="10.00" length="16.06" shape="474.13,1733.40 473.70,1737.28 473.83,1741.39 474.43,1745.47 475.44,1749.26"/>
    </edge>
    <edge id=":kilkenny_0" function="internal">
        <lane id=":kilkenny_0_0" index="0" speed="10.00" length="32.33" shape="1676.42,989.55 1679.35,976.01 1680.57,966.34 1680.10,960.53 1677.93,958.60"/>
    </edge>
    <edge id=":kilkenny_1" function="internal">
        <lane id=":kilkenny_1_0" index="0" speed="5.08" length="10.68" shape="1676.42,989.55 1678.07,987.47 1680.70,987.19 1683.04,988.47 1683.87,991.05"/>
    </edge>
    <edge id=":kilkenny_2" function="internal">
        <lane id=":kilkenny_2_0" index="0" speed="4.98" length="10.23" shape="1676.42,989.55 1678.01,987.56 1680.53,987.30 1682.78,988.54 1683.55,991.01"/>
    </edge>
    <edge id=":kilkenny_3" function="internal">
        <lane id=":kilkenny_3_0" index="0" speed="3.65" length="4.67" shape="1676.42,989.55 1677.49,988.58 1678.36,988.38 1679.04,988.96 1679.53,990.31"/>
    </edge>
    <edge id=":kilkenny_4" function="internal">
        <lane id=":kilkenny_4_0" index="0" speed="3.55" length="4.18" shape="1683.53,991.00 1683.51,992.57 1683.56,993.10 1683.68,992.59 1683.87,991.05"/>
    </edge>
    <edge id=":kilkenny_5" function="internal">
        <lane id=":kilkenny_5_0" index="0" speed="10.00" length="0.10" shape="1683.53,991.00 1683.55,991.01"/>
    </edge>
    <edge id=":kilkenny_6" function="internal">
        <lane id=":kilkenny_6_0" index="0" speed="6.68" length="19.48" shape="1683.53,991.00 1683.46,983.80 1682.77,981.28 1681.46,983.45 1679.53,990.31"/>
    </edge>
    <edge id=":kilkenny_7" function="internal">
        <lane id=":kilkenny_7_0" index="0" speed="10.00" length="34.12" shape="1683.53,991.00 1683.49,976.83 1682.54,966.70 1680.69,960.63 1677.93,958.60"/>
    </edge>
    <edge id=":letterkenny_0" function="internal">
        <lane id=":letterkenny_0_0" index="0" speed="9.73" length="30.20" shape="1359.71,3786.02 1353.83,3795.36 1348.19,3802.69 1343.35,3806.39 1339.86,3804.82"/>
    </edge>
    <edge id=":letterkenny_1" function="internal">
        <lane id=":letterkenny_1_0" index="0" speed="5.30" length="11.25" shape="1359.71,3786.02 1357.46,3787.21 1354.17,3786.92 1351.34,3785.54 1350.48,3783.45"/>
    </edge>
    <edge id=":letterkenny_2" function="internal">
        <lane id=":letterkenny_2_0" index="0" speed="5.72" length="13.50" shape="1359.71,3786.02 1356.56,3788.74 1354.02,3789.24 1352.10,3787.50 1350.81,3783.55"/>
    </edge>
    <edge id=":letterkenny_3" function="internal">
        <lane id=":letterkenny_3_0" index="0" speed="2.63" length="1.25" shape="1350.31,3783.41 1350.26,3783.87 1350.28,3784.04 1350.35,3783.90 1350.48,3783.45"/>
    </edge>
    <edge id=":letterkenny_4" function="internal">
        <lane id=":letterkenny_4_0" index="0" speed="3.31" length="3.25" shape="1350.31,3783.41 1350.20,3784.61 1350.24,3785.04 1350.45,3784.68 1350.81,3783.55"/>
    </edge>
    <edge id=":letterkenny_5" function="internal">
        <lane id=":letterkenny_5_0" index="0" speed="7.67" length="22.34" shape="1350.31,3783.41 1349.06,3790.03 1346.98,3797.45 1344.66,3802.81 1342.66,3803.27"/>
    </edge>
    <edge id=":letterkenny_6" function="internal">
        <lane id=":letterkenny_6_0" index="0" speed="5.77" length="13.48" shape="1346.48,3783.03 1346.97,3787.86 1347.79,3789.55 1348.97,3788.08 1350.48,3783.45"/>
    </edge>
    <edge id=":letterkenny_7" function="internal">
        <lane id=":letterkenny_7_0" index="0" speed="5.88" length="14.01" shape="1346.48,3783.03 1346.99,3788.04 1347.89,3789.80 1349.16,3788.30 1350.81,3783.55"/>
    </edge>
    <edge id=":letterkenny_8" function="internal">
        <lane id=":letterkenny_8_0" index="0" speed="7.86" length="25.31" shape="1346.48,3783.03 1346.74,3792.13 1346.43,3800.42 1345.19,3805.07 1342.66,3803.27"/>
    </edge>
    <edge id=":limerick_0" function="internal">
        <lane id=":limerick_0_0" index="0" speed="5.24" length="10.88" shape="744.48,973.52 745.36,970.93 747.69,969.76 750.34,970.17 752.21,972.32"/>
    </edge>
    <edge id=":limerick_1" function="internal">
        <lane id=":limerick_1_0" index="0" speed="3.79" length="5.17" shape="748.88,973.52 749.27,971.97 749.95,971.26 750.93,971.37 752.21,972.32"/>
    </edge>
    <edge id=":limerick_2" function="internal">
        <lane id=":limerick_2_0" index="0" speed="5.57" length="11.57" shape="756.40,969.52 753.25,967.07 751.50,966.72 751.15,968.47 752.21,972.32"/>
    </edge>
    <edge id=":limerick_3" function="internal">
        <lane id=":limerick_3_0" index="0" speed="7.91" length="17.48" shape="756.37,958.60 752.70,959.46 750.78,962.03 750.62,966.32 752.21,972.32"/>
    </edge>
    <edge id=":limerick_4" function="internal">
        <lane id=":limerick_4_0" index="0" speed="9.93" length="20.63" shape="755.28,953.82 751.98,956.48 750.37,960.44 750.45,965.73 752.21,972.32"/>
    </edge>
    <edge id=":longford_0" function="internal">
        <lane id=":longford_0_0" index="0" speed="5.51" length="9.55" shape="1359.16,2305.67 1358.80,2308.65 1359.50,2310.28 1361.25,2310.58 1364.06,2309.53"/>
    </edge>
    <edge id=":longford_1" function="internal">
        <lane id=":longford_1_0" index="0" speed="3.65" length="4.67" shape="1359.16,2305.67 1358.10,2306.65 1357.23,2306.85 1356.55,2306.27 1356.05,2304.92"/>
    </edge>
    <edge id=":longford_2" function="internal">
        <lane id=":longford_2_0" index="0" speed="10.00" length="14.81" shape="1350.67,2318.56 1352.72,2315.52 1354.14,2312.14 1355.17,2308.57 1356.05,2304.92"/>
    </edge>
    <edge id=":longford_3" function="internal">
        <lane id=":longford_3_0" index="0" speed="10.00" length="16.24" shape="1350.67,2318.56 1353.52,2315.88 1356.92,2313.49 1360.55,2311.37 1364.06,2309.53"/>
    </edge>
    <edge id=":monaghan_0" function="internal">
        <lane id=":monaghan_0_0" index="0" speed="5.74" length="9.18" shape="1828.66,2954.27 1831.21,2955.21 1833.06,2954.95 1834.21,2953.47 1834.65,2950.78"/>
    </edge>
    <edge id=":monaghan_1" function="internal">
        <lane id=":monaghan_1_0" index="0" speed="10.00" length="13.29" shape="1828.66,2954.27 1840.23,2960.80"/>
    </edge>
    <edge id=":naas_0" function="internal">
        <lane id=":naas_0_0" index="0" speed="10.00" length="23.46" shape="2086.77,1635.21 2086.06,1630.87 2085.33,1625.41 2085.01,1619.01 2085.49,1611.88"/>
    </edge>
    <edge id=":naas_1" function="internal">
        <lane id=":naas_1_0" index="0" speed="3.65" length="4.67" shape="2088.66,1612.31 2087.71,1613.39 2086.86,1613.68 2086.12,1613.18 2085.49,1611.88"/>
    </edge>
    <edge id=":naas_2" function="internal">
        <lane id=":naas_2_0" index="0" speed="6.27" length="9.04" shape="2075.92,1615.75 2078.43,1616.02 2080.33,1615.40 2081.63,1613.87 2082.32,1611.45"/>
    </edge>
    <edge id=":naas_3" function="internal">
        <lane id=":naas_3_0" index="0" speed="10.00" length="18.62" shape="2076.00,1628.66 2078.23,1625.68 2079.95,1622.07 2081.28,1617.45 2082.32,1611.45"/>
    </edge>
    <edge id=":naas_4" function="internal">
        <lane id=":naas_4_0" index="0" speed="10.00" length="20.07" shape="2079.88,1631.08 2081.35,1627.51 2082.87,1623.45 2084.30,1618.41 2085.49,1611.88"/>
    </edge>
    <edge id=":navan_0" function="internal">
        <lane id=":navan_0_0" index="0" speed="10.00" length="15.12" shape="2089.55,2198.56 2087.05,2201.27 2083.90,2203.32 2080.41,2204.93 2076.85,2206.34"/>
    </edge>
    <edge id=":navan_1" function="internal">
        <lane id=":navan_1_0" index="0" speed="5.47" length="9.77" shape="2089.55,2198.56 2087.54,2200.95 2085.89,2201.55 2084.60,2200.36 2083.68,2197.37"/>
    </edge>
    <edge id=":navan_2" function="internal">
        <lane id=":navan_2_0" index="0" speed="6.22" length="12.24" shape="2080.54,2214.43 2081.45,2209.89 2081.14,2207.03 2079.61,2205.85 2076.85,2206.34"/>
    </edge>
    <edge id=":navan_3" function="internal">
        <lane id=":navan_3_0" index="0" speed="10.00" length="17.47" shape="2080.54,2214.43 2081.74,2210.43 2082.97,2205.94 2083.78,2201.43 2083.68,2197.37"/>
    </edge>
    <edge id=":omagh_0" function="internal">
        <lane id=":omagh_0_0" index="0" speed="7.17" length="17.75" shape="1604.95,3342.25 1607.61,3347.95 1610.32,3350.38 1613.07,3349.55 1615.86,3345.46"/>
    </edge>
    <edge id=":omagh_1" function="internal">
        <lane id=":omagh_1_0" index="0" speed="8.87" length="24.58" shape="1604.95,3342.25 1608.20,3348.19 1612.32,3350.36 1617.30,3348.77 1623.15,3343.42"/>
    </edge>
    <edge id=":omagh_2" function="internal">
        <lane id=":omagh_2_0" index="0" speed="10.00" length="23.77" shape="1604.95,3342.25 1607.78,3350.78 1609.45,3357.46 1609.97,3362.29 1609.34,3365.26"/>
    </edge>
    <edge id=":omagh_3" function="internal">
        <lane id=":omagh_3_0" index="0" speed="7.98" length="20.12" shape="1601.33,3344.00 1605.43,3349.23 1609.22,3351.22 1612.69,3349.96 1615.86,3345.46"/>
    </edge>
    <edge id=":omagh_4" function="internal">
        <lane id=":omagh_4_0" index="0" speed="9.83" length="26.99" shape="1601.33,3344.00 1606.03,3349.33 1611.23,3351.01 1616.94,3349.04 1623.15,3343.42"/>
    </edge>
    <edge id=":omagh_5" function="internal">
        <lane id=":omagh_5_0" index="0" speed="10.00" length="23.26" shape="1601.33,3344.00 1605.79,3351.70 1608.60,3357.80 1609.79,3362.32 1609.34,3365.26"/>
    </edge>
    <edge id=":portlaoise_0" function="internal">
        <lane id=":portlaoise_0_0" index="0" speed="10.00" length="10.36" shape="1685.69,1355.92 1686.94,1358.66 1688.18,1360.39 1689.83,1361.79 1692.32,1363.56"/>
    </edge>
    <edge id=":portlaoise_1" function="internal">
        <lane id=":portlaoise_1_0" index="0" speed="10.00" length="10.50" shape="1685.69,1355.92 1686.80,1358.75 1687.55,1360.83 1688.20,1362.93 1689.03,1365.87"/>
    </edge>
    <edge id=":portlaoise_2" function="internal">
        <lane id=":portlaoise_2_0" index="0" speed="9.42" length="15.70" shape="1677.88,1365.33 1681.81,1362.85 1685.53,1361.72 1689.03,1361.96 1692.32,1363.56"/>
    </edge>
    <edge id=":portlaoise_3" function="internal">
        <lane id=":portlaoise_3_0" index="0" speed="7.05" length="13.99" shape="1677.88,1365.33 1681.95,1362.71 1685.17,1361.93 1687.53,1362.98 1689.03,1365.87"/>
    </edge>