<?xml version="1.0" encoding="UTF-8"?>

<!-- generated on 2024-09-30 18:12:35 by Eclipse SUMO netconvert Version 1.19.0
<configuration xmlns:xsi="http://www.w3.org/2001/XMLSchema-instance" xsi:noNamespaceSchemaLocation="http://sumo.dlr.de/xsd/netconvertConfiguration.xsd">

    <input>
        <node-files value="nod.xml"/>
        <edge-files value="edge_xmls/00002.xml"/>
    </input>

    <output>
        <output-file value="networks/00002.net.xml"/>
    </output>

</configuration>
-->

<net version="1.16" junctionCornerDetail="5" limitTurnSpeed="5.50" xmlns:xsi="http://www.w3.org/2001/XMLSchema-instance" xsi:noNamespaceSchemaLocation="http://sumo.dlr.de/xsd/net_file.xsd">

    <location netOffset="-682.00,4368.00" convBoundary="0.00,0.00,2498.00,3881.00" origBoundary="682.00,-4368.00,3180.00,-487.00" projParameter="!"/>

    <edge id=":antrim_0" function="internal">
        <lane id=":antrim_0_0" index="0" speed="8.34" length="30.42" shape="2274.44,3433.29 2272.99,3442.56 2269.35,3447.11 2263.53,3446.92 2255.53,3442.01"/>
    </edge>
    <edge id=":antrim_1" function="internal">
        <lane id=":antrim_1_0" index="0" speed="8.04" length="30.23" shape="2252.41,3443.96 2259.60,3452.69 2262.52,3455.27 2261.16,3451.71 2255.53,3442.01"/>
    </edge>
    <edge id=":athlone_0" function="internal">
        <lane id=":athlone_0_0" index="0" speed="8.95" length="13.77" shape="1257.11,1965.16 1256.14,1962.82 1256.31,1959.93 1257.63,1956.51 1260.10,1952.54"/>
    </edge>
    <edge id=":athlone_1" function="internal">
        <lane id=":athlone_1_0" index="0" speed="5.72" length="9.20" shape="1253.22,1952.02 1254.78,1954.27 1256.45,1955.10 1258.22,1954.53 1260.10,1952.54"/>
    </edge>
    <edge id=":belfast_0" function="internal">
        <lane id=":belfast_0_0" index="0" speed="5.46" length="10.17" shape="2484.88,3358.41 2488.21,3358.08 2489.63,3357.07 2489.14,3355.40 2486.75,3353.06"/>
    </edge>
    <edge id=":belfast_1" function="internal">
        <lane id=":belfast_1_0" index="0" speed="7.09" length="13.17" shape="2484.88,3358.41 2489.60,3358.03 2492.72,3356.88 2494.26,3354.98 2494.21,3352.31"/>
    </edge>
    <edge id=":belfast_2" function="internal">
        <lane id=":belfast_2_0" index="0" speed="5.30" length="10.81" shape="2484.88,3358.41 2487.64,3359.37 2489.15,3361.58 2489.09,3364.09 2487.11,3365.93"/>
    </edge>
    <edge id=":belfast_3" function="internal">
        <lane id=":belfast_3_0" index="0" speed="6.70" length="13.53" shape="2485.96,3362.95 2489.33,3361.04 2490.59,3358.76 2489.73,3356.10 2486.75,3353.06"/>
    </edge>
    <edge id=":belfast_4" function="internal">
        <lane id=":belfast_4_0" index="0" speed="8.49" length="14.87" shape="2485.96,3362.95 2490.27,3360.81 2493.08,3358.33 2494.39,3355.50 2494.21,3352.31"/>
    </edge>
    <edge id=":belfast_5" function="internal">
        <lane id=":belfast_5_0" index="0" speed="3.65" length="4.67" shape="2485.96,3362.95 2487.37,3363.26 2488.03,3363.86 2487.94,3364.75 2487.11,3365.93"/>
    </edge>
    <edge id=":bray_0" function="internal">
        <lane id=":bray_0_0" index="0" speed="10.00" length="47.18" shape="2442.87,1658.04 2444.12,1661.63 2442.71,1670.34 2438.62,1684.17 2431.86,1703.13"/>
    </edge>
    <edge id=":bray_1" function="internal">
        <lane id=":bray_1_0" index="0" speed="10.00" length="46.82" shape="2442.87,1658.04 2443.97,1661.56 2441.96,1670.02 2436.85,1683.42 2428.62,1701.76"/>
    </edge>
    <edge id=":carlow_0" function="internal">
        <lane id=":carlow_0_0" index="0" speed="5.08" length="10.03" shape="1888.86,1165.95 1887.73,1162.52 1886.88,1161.44 1886.32,1162.73 1886.05,1166.37"/>
    </edge>
    <edge id=":carlow_1" function="internal">
        <lane id=":carlow_1_0" index="0" speed="6.31" length="15.40" shape="1888.86,1165.95 1887.05,1160.95 1885.33,1159.31 1883.68,1161.03 1882.12,1166.12"/>
    </edge>
    <edge id=":carlow_2" function="internal">
        <lane id=":carlow_2_0" index="0" speed="10.00" length="25.49" shape="1877.71,1144.71 1881.58,1145.92 1884.26,1149.93 1885.75,1156.75 1886.05,1166.37"/>
    </edge>
    <edge id=":carlow_3" function="internal">
        <lane id=":carlow_3_0" index="0" speed="9.57" length="24.94" shape="1877.71,1144.71 1882.04,1146.25 1883.82,1150.85 1883.65,1157.73 1882.12,1166.12"/>
    </edge>
    <edge id=":carlow_4" function="internal">
        <lane id=":carlow_4_0" index="0" speed="4.11" length="6.25" shape="1881.40,1165.93 1881.21,1168.27 1881.27,1169.08 1881.57,1168.37 1882.12,1166.12"/>
    </edge>
    <edge id=":carlow_5" function="internal">
        <lane id=":carlow_5_0" index="0" speed="4.22" length="6.83" shape="1881.40,1165.93 1882.72,1164.30 1883.94,1163.82 1885.05,1164.51 1886.05,1166.37"/>
    </edge>
    <edge id=":carrick_0" function="internal">
        <lane id=":carrick_0_0" index="0" speed="9.67" length="38.56" shape="1151.31,2538.03 1142.70,2554.42 1137.78,2565.35 1136.56,2570.80 1139.02,2570.78"/>
    </edge>
    <edge id=":carrick_1" function="internal">
        <lane id=":carrick_1_0" index="0" speed="10.00" length="53.98" shape="1151.31,2538.03 1146.60,2546.66 1138.35,2561.71 1130.04,2576.70 1125.11,2585.22"/>
    </edge>
    <edge id=":carrick_2" function="internal">
        <lane id=":carrick_2_0" index="0" speed="9.94" length="39.59" shape="1148.20,2536.47 1140.70,2553.71 1136.67,2565.17 1136.11,2570.86 1139.02,2570.78"/>
    </edge>
    <edge id=":carrick_3" function="internal">
        <lane id=":carrick_3_0" index="0" speed="10.00" length="53.95" shape="1148.20,2536.47 1144.10,2545.41 1136.92,2560.98 1129.60,2576.48 1125.11,2585.22"/>
    </edge>
    <edge id=":carrick_4" function="internal">
        <lane id=":carrick_4_0" index="0" speed="7.48" length="15.42" shape="1125.70,2572.73 1127.04,2574.75 1129.70,2575.10 1133.70,2573.77 1139.02,2570.78"/>
    </edge>
    <edge id=":carrick_5" function="internal">
        <lane id=":carrick_5_0" index="0" speed="10.00" length="12.80" shape="1125.70,2572.73 1126.42,2576.73 1126.56,2580.14 1126.13,2582.97 1125.11,2585.22"/>
    </edge>
    <edge id=":castlebar_0" function="internal">
        <lane id=":castlebar_0_0" index="0" speed="3.52" length="3.77" shape="307.79,2448.34 309.16,2448.41 309.65,2448.27 309.27,2447.93 308.01,2447.38"/>
    </edge>
    <edge id=":castlebar_1" function="internal">
        <lane id=":castlebar_1_0" index="0" speed="5.12" length="6.89" shape="305.92,2442.46 304.92,2443.87 304.93,2445.16 305.97,2446.33 308.01,2447.38"/>
    </edge>
    <edge id=":cavan_0" function="internal">
        <lane id=":cavan_0_0" index="0" speed="3.71" length="4.66" shape="1686.26,2629.01 1686.47,2630.43 1686.15,2631.27 1685.29,2631.51 1683.90,2631.16"/>
    </edge>
    <edge id=":clonmel_0" function="internal">
        <lane id=":clonmel_0_0" index="0" speed="10.00" length="11.91" shape="1383.79,606.37 1385.76,608.92 1386.82,611.35 1387.41,614.01 1387.96,617.28"/>
    </edge>
    <edge id=":clonmel_1" function="internal">
        <lane id=":clonmel_1_0" index="0" speed="7.34" length="10.52" shape="1383.79,606.37 1384.95,608.29 1385.09,610.52 1384.22,613.03 1382.33,615.85"/>
    </edge>
    <edge id=":cork_0" function="internal">
        <lane id=":cork_0_0" index="0" speed="6.22" length="15.89" shape="817.10,16.38 816.91,12.33 819.37,9.44 823.14,8.51 826.87,10.36"/>
    </edge>
    <edge id=":cork_1" function="internal">
        <lane id=":cork_1_0" index="0" speed="4.26" length="6.95" shape="819.89,14.79 820.05,12.65 820.79,11.55 822.12,11.48 824.03,12.44"/>
    </edge>
    <edge id=":cork_2" function="internal">
        <lane id=":cork_2_0" index="0" speed="8.26" length="23.86" shape="812.31,14.81 813.73,7.57 816.63,4.41 821.01,5.34 826.87,10.36"/>
    </edge>
    <edge id=":cork_3" function="internal">
        <lane id=":cork_3_0" index="0" speed="6.58" length="16.13" shape="812.31,14.81 813.88,10.84 817.11,8.98 820.87,9.45 824.03,12.44"/>
    </edge>
    <edge id=":craigavon_0" function="internal">
        <lane id=":craigavon_0_0" index="0" speed="5.62" length="11.44" shape="2136.50,3153.07 2140.00,3154.05 2141.61,3153.54 2141.31,3151.56 2139.12,3148.08"/>
    </edge>
    <edge id=":craigavon_1" function="internal">
        <lane id=":craigavon_1_0" index="0" speed="6.64" length="14.78" shape="2136.50,3153.07 2140.90,3154.18 2143.43,3153.38 2144.07,3150.66 2142.83,3146.03"/>
    </edge>
    <edge id=":craigavon_2" function="internal">
        <lane id=":craigavon_2_0" index="0" speed="7.63" length="17.06" shape="2136.50,3153.07 2141.58,3154.33 2145.11,3153.57 2147.07,3150.79 2147.46,3145.99"/>
    </edge>
    <edge id=":derry_0" function="internal">
        <lane id=":derry_0_0" index="0" speed="5.43" length="11.93" shape="1596.88,3923.08 1597.40,3925.84 1600.15,3927.37 1603.30,3927.21 1604.99,3924.96"/>
    </edge>
    <edge id=":derry_1" function="internal">
        <lane id=":derry_1_0" index="0" speed="5.95" length="14.54" shape="1596.88,3923.08 1597.54,3926.45 1600.95,3928.31 1604.79,3928.12 1606.75,3925.37"/>
    </edge>
    <edge id=":derry_2" function="internal">
        <lane id=":derry_2_0" index="0" speed="4.26" length="6.74" shape="1596.88,3923.08 1598.54,3921.81 1599.81,3921.64 1600.72,3922.56 1601.25,3924.57"/>
    </edge>
    <edge id=":derry_3" function="internal">
        <lane id=":derry_3_0" index="0" speed="10.00" length="70.96" shape="1609.93,3925.93 1610.96,3899.45 1609.85,3890.39 1606.62,3898.77 1601.25,3924.57"/>
    </edge>
    <edge id=":derry_4" function="internal">
        <lane id=":derry_4_0" index="0" speed="10.00" length="124.08" shape="1609.93,3925.93 1612.39,3879.36 1612.39,3863.67 1609.92,3878.87 1604.99,3924.96"/>
    </edge>
    <edge id=":derry_5" function="internal">
        <lane id=":derry_5_0" index="0" speed="3.66" length="4.71" shape="1609.93,3925.93 1608.92,3926.98 1608.06,3927.24 1607.33,3926.70 1606.75,3925.37"/>
    </edge>
    <edge id=":dublin_0" function="internal">
        <lane id=":dublin_0_0" index="0" speed="10.00" length="35.37" shape="2292.52,1833.94 2303.73,1827.13 2313.68,1822.15 2320.66,1820.50 2322.97,1823.71"/>
    </edge>
    <edge id=":dublin_1" function="internal">
        <lane id=":dublin_1_0" index="0" speed="9.85" length="34.85" shape="2294.45,1836.66 2304.79,1828.89 2314.14,1822.93 2320.78,1820.60 2322.97,1823.71"/>
    </edge>
    <edge id=":dublin_2" function="internal">
        <lane id=":dublin_2_0" index="0" speed="4.68" length="8.08" shape="2317.49,1822.95 2319.15,1821.08 2320.61,1820.59 2321.89,1821.46 2322.97,1823.71"/>
    </edge>
    <edge id=":dundalk_0" function="internal">
        <lane id=":dundalk_0_0" index="0" speed="10.00" length="14.17" shape="2246.97,2626.17 2246.14,2629.62 2244.53,2632.64 2242.39,2635.44 2239.98,2638.22"/>
    </edge>
    <edge id=":dundalk_1" function="internal">
        <lane id=":dundalk_1_0" index="0" speed="10.00" length="18.19" shape="2246.97,2626.17 2245.84,2628.63 2242.94,2630.88 2238.27,2632.94 2231.82,2634.78"/>
    </edge>
    <edge id=":dundalk_2" function="internal">
        <lane id=":dundalk_2_0" index="0" speed="9.59" length="20.85" shape="2246.97,2626.17 2245.57,2628.50 2241.89,2629.91 2235.95,2630.40 2227.73,2629.97"/>
    </edge>
    <edge id=":dundalk_3" function="internal">
        <lane id=":dundalk_3_0" index="0" speed="8.69" length="20.10" shape="2246.97,2626.17 2245.61,2628.41 2242.10,2629.12 2236.43,2628.29 2228.62,2625.92"/>
    </edge>
    <edge id=":ennis_0" function="internal">
        <lane id=":ennis_0_0" index="0" speed="5.60" length="11.85" shape="495.21,1214.88 491.36,1213.41 489.56,1213.57 489.82,1215.35 492.14,1218.76"/>
    </edge>
    <edge id=":ennis_1" function="internal">
        <lane id=":ennis_1_0" index="0" speed="7.36" length="15.67" shape="495.21,1214.88 489.23,1212.43 484.95,1211.45 482.36,1211.95 481.47,1213.93"/>
    </edge>
    <edge id=":ennis_2" function="internal">
        <lane id=":ennis_2_0" index="0" speed="9.86" length="28.46" shape="495.21,1214.88 488.23,1210.34 485.29,1205.17 486.42,1199.36 491.59,1192.91"/>
    </edge>
    <edge id=":ennis_3" function="internal">
        <lane id=":ennis_3_0" index="0" speed="6.32" length="15.51" shape="495.21,1214.88 492.20,1212.04 491.63,1208.37 493.31,1205.16 497.07,1203.67"/>
    </edge>
    <edge id=":ennis_4" function="internal">
        <lane id=":ennis_4_0" index="0" speed="5.65" length="12.04" shape="496.23,1198.55 492.63,1200.96 491.58,1202.62 493.05,1203.52 497.07,1203.67"/>
    </edge>
    <edge id=":ennis_5" function="internal">
        <lane id=":ennis_5_0" index="0" speed="9.82" length="24.41" shape="496.23,1198.55 490.79,1202.78 488.30,1207.56 488.74,1212.89 492.14,1218.76"/>
    </edge>
    <edge id=":ennis_6" function="internal">
        <lane id=":ennis_6_0" index="0" speed="10.00" length="22.06" shape="496.23,1198.55 489.82,1202.66 485.22,1206.59 482.43,1210.35 481.47,1213.93"/>
    </edge>
    <edge id=":ennis_7" function="internal">
        <lane id=":ennis_7_0" index="0" speed="5.06" length="10.18" shape="496.23,1198.55 493.61,1198.91 491.48,1197.53 490.57,1195.25 491.59,1192.91"/>
    </edge>
    <edge id=":ennis_8" function="internal">
        <lane id=":ennis_8_0" index="0" speed="6.64" length="15.63" shape="493.78,1195.24 490.41,1199.14 489.83,1201.84 492.05,1203.35 497.07,1203.67"/>
    </edge>
    <edge id=":ennis_9" function="internal">
        <lane id=":ennis_9_0" index="0" speed="10.00" length="26.41" shape="493.78,1195.24 489.32,1200.81 487.56,1206.58 488.50,1212.57 492.14,1218.76"/>
    </edge>
    <edge id=":ennis_10" function="internal">
        <lane id=":ennis_10_0" index="0" speed="10.00" length="22.84" shape="493.78,1195.24 488.44,1200.71 484.61,1205.65 482.28,1210.05 481.47,1213.93"/>
    </edge>
    <edge id=":ennis_11" function="internal">
        <lane id=":ennis_11_0" index="0" speed="3.65" length="4.67" shape="493.78,1195.24 492.36,1195.48 491.52,1195.17 491.27,1194.32 491.59,1192.91"/>
    </edge>
    <edge id=":enniskillen_0" function="internal">
        <lane id=":enniskillen_0_0" index="0" speed="5.07" length="10.71" shape="1465.25,3023.63 1463.62,3025.80 1460.96,3026.23 1458.57,3025.11 1457.71,3022.60"/>
    </edge>
    <edge id=":enniskillen_1" function="internal">
        <lane id=":enniskillen_1_0" index="0" speed="4.06" length="6.26" shape="1461.98,3023.08 1460.73,3024.55 1459.61,3024.97 1458.60,3024.32 1457.71,3022.60"/>
    </edge>
    <edge id=":galway_0" function="internal">
        <lane id=":galway_0_0" index="0" speed="10.00" length="12.05" shape="475.76,1746.85 473.17,1744.78 471.12,1742.92 469.49,1740.77 468.10,1737.82"/>
    </edge>
    <edge id=":galway_1" function="internal">
        <lane id=":galway_1_0" index="0" speed="10.00" length="34.57" shape="475.76,1746.85 473.90,1742.21 476.61,1735.73 482.84,1727.83 491.56,1718.90"/>
    </edge>
    <edge id=":galway_2" function="internal">
        <lane id=":galway_2_0" index="0" speed="9.47" length="23.64" shape="489.08,1731.24 481.72,1735.72 475.40,1738.76 470.67,1739.69 468.10,1737.82"/>
    </edge>
    <edge id=":galway_3" function="internal">
        <lane id=":galway_3_0" index="0" speed="6.26" length="17.00" shape="489.08,1731.24 486.28,1731.59 486.23,1728.31 488.23,1723.41 491.56,1718.90"/>
    </edge>
    <edge id=":galway_4" function="internal">
        <lane id=":galway_4_0" index="0" speed="10.00" length="32.21" shape="493.78,1721.20 484.88,1729.49 477.06,1735.82 471.19,1739.00 468.10,1737.82"/>
    </edge>
    <edge id=":galway_5" function="internal">
        <lane id=":galway_5_0" index="0" speed="3.65" length="4.67" shape="493.78,1721.20 492.36,1721.46 491.52,1721.16 491.25,1720.31 491.56,1718.90"/>
    </edge>
    <edge id=":galway_6" function="internal">
        <lane id=":galway_6_0" index="0" speed="3.56" length="4.16" shape="491.22,1718.53 490.26,1719.76 490.00,1720.23 490.43,1719.95 491.56,1718.90"/>
    </edge>
    <edge id=":galway_7" function="internal">
        <lane id=":galway_7_0" index="0" speed="9.99" length="31.93" shape="491.22,1718.53 483.45,1727.78 476.46,1735.04 471.07,1738.87 468.10,1737.82"/>
    </edge>
    <edge id=":galway_8" function="internal">
        <lane id=":galway_8_0" index="0" speed="8.31" length="24.59" shape="472.80,1729.31 473.92,1731.60 477.42,1730.63 483.30,1726.40 491.56,1718.90"/>
    </edge>
    <edge id=":galway_9" function="internal">
        <lane id=":galway_9_0" index="0" speed="5.74" length="12.98" shape="472.80,1729.31 472.29,1733.63 471.12,1737.48 469.62,1739.38 468.10,1737.82"/>
    </edge>
    <edge id=":kilkenny_0" function="internal">
        <lane id=":kilkenny_0_0" index="0" speed="5.45" length="9.18" shape="1683.29,967.02 1683.23,964.27 1682.31,962.88 1680.52,962.84 1677.86,964.16"/>
    </edge>
    <edge id=":kilkenny_1" function="internal">
        <lane id=":kilkenny_1_0" index="0" speed="7.20" length="12.25" shape="1683.29,967.02 1683.25,963.34 1682.19,960.70 1680.12,959.13 1677.04,958.60"/>
    </edge>
    <edge id=":kilkenny_2" function="internal">
        <lane id=":kilkenny_2_0" index="0" speed="5.02" length="9.58" shape="1683.29,967.02 1684.47,964.31 1685.94,963.22 1687.70,963.74 1689.75,965.87"/>
    </edge>
    <edge id=":letterkenny_0" function="internal">
        <lane id=":letterkenny_0_0" index="0" speed="7.76" length="21.42" shape="1358.94,3802.71 1352.38,3804.43 1348.75,3803.37 1348.04,3799.54 1350.26,3792.94"/>
    </edge>
    <edge id=":letterkenny_1" function="internal">
        <lane id=":letterkenny_1_0" index="0" speed="3.65" length="4.67" shape="1358.94,3802.71 1357.53,3802.39 1356.87,3801.79 1356.95,3800.90 1357.78,3799.72"/>
    </edge>
    <edge id=":letterkenny_2" function="internal">
        <lane id=":letterkenny_2_0" index="0" speed="5.54" length="10.57" shape="1354.44,3794.91 1352.88,3798.19 1352.92,3800.08 1354.56,3800.59 1357.78,3799.72"/>
    </edge>
    <edge id=":letterkenny_3" function="internal">
        <lane id=":letterkenny_3_0" index="0" speed="4.22" length="6.75" shape="1354.44,3794.91 1352.65,3795.99 1351.36,3796.02 1350.56,3795.00 1350.26,3792.94"/>
    </edge>
    <edge id=":letterkenny_4" function="internal">
        <lane id=":letterkenny_4_0" index="0" speed="5.46" length="10.34" shape="1344.75,3792.31 1345.77,3795.59 1347.04,3796.78 1348.53,3795.90 1350.26,3792.94"/>
    </edge>
    <edge id=":letterkenny_5" function="internal">
        <lane id=":letterkenny_5_0" index="0" speed="8.43" length="17.81" shape="1344.75,3792.31 1346.47,3797.09 1349.22,3799.92 1352.99,3800.80 1357.78,3799.72"/>
    </edge>
    <edge id=":limerick_0" function="internal">
        <lane id=":limerick_0_0" index="0" speed="6.04" length="14.93" shape="756.18,978.44 753.18,974.05 751.50,972.91 751.15,975.01 752.13,980.37"/>
    </edge>
    <edge id=":limerick_1" function="internal">
        <lane id=":limerick_1_0" index="0" speed="6.21" length="15.80" shape="756.18,978.44 753.01,973.85 751.20,972.68 750.73,974.93 751.62,980.62"/>
    </edge>
    <edge id=":limerick_2" function="internal">
        <lane id=":limerick_2_0" index="0" speed="9.27" length="22.49" shape="756.18,978.44 750.96,970.33 746.83,964.91 743.79,962.19 741.83,962.17"/>
    </edge>
    <edge id=":limerick_3" function="internal">
        <lane id=":limerick_3_0" index="0" speed="10.00" length="29.67" shape="756.18,978.44 753.09,973.15 748.87,965.31 745.20,957.34 743.79,951.65"/>
    </edge>
    <edge id=":limerick_4" function="internal">
        <lane id=":limerick_4_0" index="0" speed="7.72" length="22.71" shape="756.18,978.44 754.06,972.16 754.82,966.44 758.12,962.93 763.61,963.25"/>
    </edge>
    <edge id=":limerick_5" function="internal">
        <lane id=":limerick_5_0" index="0" speed="6.30" length="18.01" shape="756.18,978.44 759.76,984.17 761.16,985.98 760.38,983.87 757.41,977.85"/>
    </edge>
    <edge id=":limerick_6" function="internal">
        <lane id=":limerick_6_0" index="0" speed="5.71" length="12.71" shape="764.56,958.60 760.09,958.89 758.43,959.76 759.61,961.21 763.61,963.25"/>
    </edge>
    <edge id=":limerick_7" function="internal">
        <lane id=":limerick_7_0" index="0" speed="9.36" length="26.95" shape="764.56,958.60 757.76,959.80 754.30,963.41 754.18,969.43 757.41,977.85"/>
    </edge>
    <edge id=":limerick_8" function="internal">
        <lane id=":limerick_8_0" index="0" speed="10.00" length="30.18" shape="764.56,958.60 757.21,959.96 752.68,964.04 750.99,970.85 752.13,980.37"/>
    </edge>
    <edge id=":limerick_9" function="internal">
        <lane id=":limerick_9_0" index="0" speed="10.00" length="30.54" shape="764.56,958.60 757.16,959.98 752.53,964.10 750.68,970.99 751.62,980.62"/>
    </edge>
    <edge id=":limerick_10" function="internal">
        <lane id=":limerick_10_0" index="0" speed="10.00" length="23.27" shape="764.56,958.60 759.42,958.68 752.69,959.10 746.22,960.17 741.83,962.17"/>
    </edge>
    <edge id=":limerick_11" function="internal">
        <lane id=":limerick_11_0" index="0" speed="9.72" length="22.62" shape="764.56,958.60 758.20,958.00 751.34,956.43 745.90,954.20 743.79,951.65"/>
    </edge>
    <edge id=":limerick_12" function="internal">
        <lane id=":limerick_12_0" index="0" speed="10.00" length="9.55" shape="739.64,959.84 741.65,957.88 742.84,956.28 743.47,954.42 743.79,951.65"/>
    </edge>
    <edge id=":limerick_13" function="internal">
        <lane id=":limerick_13_0" index="0" speed="10.00" length="25.10" shape="739.64,959.84 743.02,958.28 748.15,958.33 755.01,959.99 763.61,963.25"/>
    </edge>
    <edge id=":limerick_14" function="internal">
        <lane id=":limerick_14_0" index="0" speed="10.00" length="27.72" shape="739.64,959.84 743.57,958.97 747.95,962.44 752.62,969.11 757.41,977.85"/>
    </edge>
    <edge id=":limerick_15" function="internal">
        <lane id=":limerick_15_0" index="0" speed="9.25" length="27.05" shape="739.64,959.84 743.37,959.14 746.70,963.39 749.63,970.99 752.13,980.37"/>
    </edge>
    <edge id=":limerick_16" function="internal">
        <lane id=":limerick_16_0" index="0" speed="9.20" length="27.05" shape="739.64,959.84 743.35,959.16 746.58,963.48 749.33,971.17 751.62,980.62"/>
    </edge>
    <edge id=":limerick_17" function="internal">
        <lane id=":limerick_17_0" index="0" speed="3.65" length="4.67" shape="739.64,959.84 741.06,959.60 741.90,959.91 742.16,960.77 741.83,962.17"/>
    </edge>
    <edge id=":longford_0" function="internal">
        <lane id=":longford_0_0" index="0" speed="7.26" length="12.54" shape="1362.46,2325.31 1359.07,2322.58 1356.15,2321.29 1353.70,2321.44 1351.73,2323.04"/>
    </edge>
    <edge id=":longford_1" function="internal">
        <lane id=":longford_1_0" index="0" speed="10.00" length="22.03" shape="1362.46,2325.31 1358.65,2322.33 1353.42,2319.04 1347.97,2316.14 1343.49,2314.31"/>
    </edge>
    <edge id=":longford_2" function="internal">
        <lane id=":longford_2_0" index="0" speed="6.89" length="15.36" shape="1362.46,2325.31 1358.13,2320.70 1356.07,2317.24 1356.25,2314.94 1358.70,2313.80"/>
    </edge>
    <edge id=":longford_3" function="internal">
        <lane id=":longford_3_0" index="0" speed="9.10" length="14.33" shape="1364.97,2321.21 1360.62,2320.09 1356.96,2320.01 1354.00,2321.00 1351.73,2323.04"/>
    </edge>
    <edge id=":longford_4" function="internal">
        <lane id=":longford_4_0" index="0" speed="10.00" length="22.56" shape="1364.97,2321.21 1343.49,2314.31"/>
    </edge>
    <edge id=":longford_5" function="internal">
        <lane id=":longford_5_0" index="0" speed="6.45" length="16.14" shape="1364.97,2321.21 1358.40,2318.57 1355.17,2316.45 1355.27,2314.86 1358.70,2313.80"/>
    </edge>
    <edge id=":monaghan_0" function="internal">
        <lane id=":monaghan_0_0" index="0" speed="10.00" length="24.16" shape="1844.55,2945.56 1840.69,2952.58 1836.64,2957.58 1832.41,2960.58 1828.00,2961.57"/>
    </edge>
    <edge id=":monaghan_1" function="internal">
        <lane id=":monaghan_1_0" index="0" speed="8.21" length="20.64" shape="1844.55,2945.56 1840.61,2952.78 1837.02,2956.90 1833.78,2957.91 1830.90,2955.82"/>
    </edge>
    <edge id=":monaghan_2" function="internal">
        <lane id=":monaghan_2_0" index="0" speed="10.00" length="30.64" shape="1842.05,2936.30 1839.40,2947.37 1836.18,2955.27 1832.37,2960.00 1828.00,2961.57"/>
    </edge>
    <edge id=":monaghan_3" function="internal">
        <lane id=":monaghan_3_0" index="0" speed="8.27" length="23.92" shape="1842.05,2936.30 1840.15,2943.02 1837.09,2950.34 1833.72,2955.51 1830.90,2955.82"/>
    </edge>
    <edge id=":monaghan_4" function="internal">
        <lane id=":monaghan_4_0" index="0" speed="10.00" length="29.80" shape="1838.25,2935.90 1837.35,2947.14 1835.34,2955.17 1832.22,2959.98 1828.00,2961.57"/>
    </edge>
    <edge id=":monaghan_5" function="internal">
        <lane id=":monaghan_5_0" index="0" speed="7.83" length="22.92" shape="1838.25,2935.90 1837.48,2942.62 1835.74,2950.17 1833.41,2955.57 1830.90,2955.82"/>
    </edge>
    <edge id=":naas_0" function="internal">
        <lane id=":naas_0_0" index="0" speed="6.97" length="21.67" shape="2084.40,1658.60 2084.16,1650.59 2083.42,1647.85 2082.20,1650.40 2080.50,1658.22"/>
    </edge>
    <edge id=":naas_1" function="internal">
        <lane id=":naas_1_0" index="0" speed="10.00" length="44.55" shape="2079.96,1614.90 2082.93,1619.20 2084.01,1627.85 2083.20,1640.86 2080.50,1658.22"/>
    </edge>
    <edge id=":naas_2" function="internal">
        <lane id=":naas_2_0" index="0" speed="10.00" length="39.61" shape="2077.79,1622.93 2082.39,1623.59 2083.75,1631.43 2082.82,1643.84 2080.50,1658.22"/>
    </edge>
    <edge id=":naas_3" function="internal">
        <lane id=":naas_3_0" index="0" speed="4.77" length="9.33" shape="2074.24,1656.96 2076.27,1654.93 2078.00,1654.46 2079.40,1655.55 2080.50,1658.22"/>
    </edge>
    <edge id=":navan_0" function="internal">
        <lane id=":navan_0_0" index="0" speed="10.00" length="25.91" shape="2085.06,2210.96 2084.40,2185.06"/>
    </edge>
    <edge id=":navan_1" function="internal">
        <lane id=":navan_1_0" index="0" speed="5.53" length="11.20" shape="2079.41,2186.40 2081.60,2189.55 2083.15,2190.38 2084.09,2188.88 2084.40,2185.06"/>
    </edge>
    <edge id=":navan_2" function="internal">
        <lane id=":navan_2_0" index="0" speed="9.52" length="18.10" shape="2078.00,2200.64 2080.80,2199.29 2082.80,2196.24 2084.00,2191.50 2084.40,2185.06"/>
    </edge>
    <edge id=":navan_3" function="internal">
        <lane id=":navan_3_0" index="0" speed="10.00" length="25.43" shape="2080.07,2210.04 2081.63,2204.92 2083.02,2197.72 2084.02,2190.43 2084.40,2185.06"/>
    </edge>
    <edge id=":omagh_0" function="internal">
        <lane id=":omagh_0_0" index="0" speed="7.59" length="19.58" shape="1626.80,3344.10 1621.46,3350.79 1618.71,3355.57 1618.57,3358.44 1621.03,3359.39"/>
    </edge>
    <edge id=":omagh_1" function="internal">
        <lane id=":omagh_1_0" index="0" speed="10.00" length="25.58" shape="1626.80,3344.10 1623.20,3348.13 1618.28,3353.66 1613.50,3359.29 1610.31,3363.62"/>
    </edge>
    <edge id=":omagh_2" function="internal">
        <lane id=":omagh_2_0" index="0" speed="6.83" length="18.66" shape="1626.80,3344.10 1622.53,3346.57 1618.11,3345.90 1615.00,3342.79 1614.64,3337.95"/>
    </edge>
    <edge id=":omagh_3" function="internal">
        <lane id=":omagh_3_0" index="0" speed="5.89" length="14.32" shape="1626.80,3344.10 1622.88,3346.14 1620.14,3346.03 1618.59,3343.77 1618.21,3339.37"/>
    </edge>
    <edge id=":portlaoise_0" function="internal">
        <lane id=":portlaoise_0_0" index="0" speed="7.08" length="8.93" shape="1691.66,1355.27 1691.55,1357.96 1692.06,1360.11 1693.18,1361.73 1694.93,1362.80"/>
    </edge>
    <edge id=":portlaoise_1" function="internal">
        <lane id=":portlaoise_1_0" index="0" speed="10.00" length="10.13" shape="1688.49,1354.82 1688.11,1357.81 1687.82,1359.87 1687.26,1361.85 1686.11,1364.60"/>
    </edge>
    <edge id=":portlaoise_2" function="internal">
        <lane id=":portlaoise_2_0" index="0" speed="10.00" length="15.35" shape="1680.72,1356.99 1694.93,1362.80"/>
    </edge>
    <edge id=":portlaoise_3" function="internal">
        <lane id=":portlaoise_3_0" index="0" speed="6.90" length="10.49" shape="1680.72,1356.99 1683.84,1358.66 1685.78,1360.49 1686.53,1362.46 1686.11,1364.60"/>
    </edge>
    <edge id=":portlaoise_4" function="internal">
        <lane id=":portlaoise_4_0" index="0" speed="8.50" length="13.12" shape="1682.63,1362.96 1684.44,1361.49 1687.10,1360.97 1690.60,1361.41 1694.93,1362.80"/>
    </edge>
    <edge id=":portlaoise_5" function="internal">
        <lane id=":portlaoise_5_0" index="0" speed="3.99" length="5.62" shape="1682.63,1362.96 1684.11,1362.06 1685.18,1362.04 1685.85,1362.88 1686.11,1364.60"/>
    </edge>
    <edge id=":roscommon_0" function="internal">
        <lane id=":roscommon_0_0" index="0" speed="6.39" length="9.04" shape="1052.64,2229.60 1050.17,2229.25 1048.22,2229.79 1046.79,2231.23 1045.88,2233.55"/>
    </edge>
    <edge id=":roscommon_1" function="internal">
        <lane id=":roscommon_1_0" index="0" speed="6.38" length="13.67" shape="1052.64,2229.60 1048.55,2227.90 1046.96,2225.92 1047.86,2223.64 1051.26,2221.08"/>
    </edge>
    <edge id=":sligo_0" function="internal">
        <lane id=":sligo_0_0" index="0" speed="7.08" length="18.38" shape="893.57,2957.67 888.17,2956.63 884.21,2954.00 882.81,2950.49 885.10,2946.79"/>
    </edge>
    <edge id=":sligo_1" function="internal">
        <lane id=":sligo_1_0" index="0" speed="6.04" length="14.27" shape="893.10,2953.57 888.81,2953.59 885.26,2952.04 883.63,2949.56 885.10,2946.79"/>
    </edge>
    <edge id=":sligo_2" function="internal">
        <lane id=":sligo_2_0" index="0" speed="10.00" length="0.68" shape="884.98,2946.68 884.84,2946.88 884.81,2946.97 884.90,2946.94 885.10,2946.79"/>
    </edge>
    <edge id=":sligo_3" function="internal">