<?xml version="1.0" encoding="UTF-8"?>

<!-- generated on 2024-09-30 18:12:35 by Eclipse SUMO netconvert Version 1.19.0
<configuration xmlns:xsi="http://www.w3.org/2001/XMLSchema-instance" xsi:noNamespaceSchemaLocation="http://sumo.dlr.de/xsd/netconvertConfiguration.xsd">

    <input>
        <node-files value="nod.xml"/>
        <edge-files value="edge_xmls/00001.xml"/>
    </input>

    <output>
        <output-file value="networks/00001.net.xml"/>
    </output>

</configuration>
-->

<net version="1.16" junctionCornerDetail="5" limitTurnSpeed="5.50" xmlns:xsi="http://www.w3.org/2001/XMLSchema-instance" xsi:noNamespaceSchemaLocation="http://sumo.dlr.de/xsd/net_file.xsd">

    <location netOffset="-682.00,4368.00" convBoundary="0.00,0.00,2498.00,3881.00" origBoundary="682.00,-4368.00,3180.00,-487.00" projParameter="!"/>

    <edge id=":antrim_0" function="internal">
        <lane id=":antrim_0_0" index="0" speed="6.21" length="9.05" shape="2287.24,3479.59 2288.55,3481.76 2290.20,3482.88 2292.19,3482.94 2294.52,3481.94"/>
    </edge>
    <edge id=":antrim_1" function="internal">
        <lane id=":antrim_1_0" index="0" speed="6.24" length="15.54" shape="2284.29,3480.83 2286.44,3486.73 2286.67,3489.68 2284.99,3489.71 2281.40,3486.79"/>
    </edge>
    <edge id=":athlone_0" function="internal">
        <lane id=":athlone_0_0" index="0" speed="4.13" length="4.83" shape="1256.61,1962.48 1255.12,1962.91 1254.28,1962.70 1254.08,1961.85 1254.53,1960.37"/>
    </edge>
    <edge id=":belfast_0" function="internal">
        <lane id=":belfast_0_0" index="0" speed="5.77" length="13.15" shape="2485.72,3343.44 2489.00,3346.77 2490.76,3347.49 2491.01,3345.60 2489.76,3341.10"/>
    </edge>
    <edge id=":belfast_1" function="internal">
        <lane id=":belfast_1_0" index="0" speed="6.71" length="15.96" shape="2487.32,3352.02 2490.39,3353.01 2491.81,3351.52 2491.60,3347.55 2489.76,3341.10"/>
    </edge>
    <edge id=":belfast_2" function="internal">
        <lane id=":belfast_2_0" index="0" speed="10.00" length="21.38" shape="2492.25,3361.63 2493.52,3359.47 2493.53,3355.33 2492.28,3349.21 2489.76,3341.10"/>
    </edge>
    <edge id=":bray_0" function="internal">
        <lane id=":bray_0_0" index="0" speed="6.82" length="9.02" shape="2444.15,1657.11 2445.69,1658.99 2446.35,1660.96 2446.11,1663.03 2445.00,1665.19"/>
    </edge>
    <edge id=":bray_1" function="internal">
        <lane id=":bray_1_0" index="0" speed="5.91" length="14.04" shape="2444.15,1657.11 2445.08,1659.18 2442.53,1659.69 2438.16,1659.04 2433.63,1657.61"/>
    </edge>
    <edge id=":bray_2" function="internal">
        <lane id=":bray_2_0" index="0" speed="5.56" length="9.39" shape="2432.88,1667.01 2435.16,1665.22 2435.84,1663.55 2434.92,1662.00 2432.41,1660.57"/>
    </edge>
    <edge id=":bray_3" function="internal">
        <lane id=":bray_3_0" index="0" speed="6.38" length="16.25" shape="2432.88,1667.01 2437.79,1664.46 2442.60,1662.70 2445.58,1662.64 2445.00,1665.19"/>
    </edge>
    <edge id=":carlow_0" function="internal">
        <lane id=":carlow_0_0" index="0" speed="5.72" length="12.70" shape="1887.08,1165.48 1885.95,1161.12 1884.78,1159.63 1883.57,1161.03 1882.31,1165.31"/>
    </edge>
    <edge id=":carlow_1" function="internal">
        <lane id=":carlow_1_0" index="0" speed="7.09" length="16.22" shape="1887.08,1165.48 1885.47,1158.74 1883.71,1154.59 1881.80,1153.03 1879.73,1154.05"/>
    </edge>
    <edge id=":carlow_2" function="internal">
        <lane id=":carlow_2_0" index="0" speed="10.00" length="25.16" shape="1887.08,1165.48 1885.04,1157.30 1882.40,1151.05 1879.16,1146.72 1875.32,1144.31"/>
    </edge>
    <edge id=":carlow_3" function="internal">
        <lane id=":carlow_3_0" index="0" speed="8.66" length="36.21" shape="1887.08,1165.48 1889.75,1178.79 1890.98,1183.18 1890.78,1178.65 1889.14,1165.21"/>
    </edge>
    <edge id=":carlow_4" function="internal">
        <lane id=":carlow_4_0" index="0" speed="3.65" length="4.68" shape="1887.08,1165.48 1887.72,1164.18 1888.47,1163.68 1889.31,1163.98 1890.26,1165.07"/>
    </edge>
    <edge id=":carlow_5" function="internal">
        <lane id=":carlow_5_0" index="0" speed="5.99" length="13.86" shape="1888.05,1165.35 1886.57,1160.73 1885.12,1159.18 1883.70,1160.71 1882.31,1165.31"/>
    </edge>
    <edge id=":carlow_6" function="internal">
        <lane id=":carlow_6_0" index="0" speed="7.26" length="16.67" shape="1888.05,1165.35 1886.07,1158.62 1884.02,1154.49 1881.90,1152.97 1879.73,1154.05"/>
    </edge>
    <edge id=":carlow_7" function="internal">
        <lane id=":carlow_7_0" index="0" speed="10.00" length="25.45" shape="1888.05,1165.35 1885.60,1157.24 1882.67,1151.03 1879.24,1146.72 1875.32,1144.31"/>
    </edge>
    <edge id=":carlow_8" function="internal">
        <lane id=":carlow_8_0" index="0" speed="9.56" length="44.78" shape="1888.05,1165.35 1892.15,1181.67 1893.88,1187.06 1893.25,1181.52 1890.26,1165.07"/>
    </edge>
    <edge id=":carlow_9" function="internal">
        <lane id=":carlow_9_0" index="0" speed="4.99" length="10.34" shape="1888.05,1165.35 1889.03,1169.10 1889.54,1170.33 1889.57,1169.03 1889.14,1165.21"/>
    </edge>
    <edge id=":carlow_10" function="internal">
        <lane id=":carlow_10_0" index="0" speed="10.00" length="23.56" shape="1886.20,1141.86 1886.91,1146.90 1888.06,1153.49 1889.30,1160.07 1890.26,1165.07"/>
    </edge>
    <edge id=":carlow_11" function="internal">
        <lane id=":carlow_11_0" index="0" speed="10.00" length="23.53" shape="1886.20,1141.86 1889.14,1165.21"/>
    </edge>
    <edge id=":carlow_12" function="internal">
        <lane id=":carlow_12_0" index="0" speed="10.00" length="23.81" shape="1886.20,1141.86 1885.95,1146.94 1884.85,1153.62 1883.45,1160.29 1882.31,1165.31"/>
    </edge>
    <edge id=":carlow_13" function="internal">
        <lane id=":carlow_13_0" index="0" speed="10.00" length="14.14" shape="1886.20,1141.86 1885.97,1144.39 1884.81,1147.26 1882.73,1150.48 1879.73,1154.05"/>
    </edge>
    <edge id=":carlow_14" function="internal">
        <lane id=":carlow_14_0" index="0" speed="6.88" length="13.61" shape="1886.20,1141.86 1885.76,1144.44 1883.80,1145.71 1880.32,1145.67 1875.32,1144.31"/>
    </edge>
    <edge id=":carlow_15" function="internal">
        <lane id=":carlow_15_0" index="0" speed="5.65" length="9.30" shape="1876.45,1150.95 1878.38,1148.89 1878.83,1147.10 1877.81,1145.57 1875.32,1144.31"/>
    </edge>
    <edge id=":carlow_16" function="internal">
        <lane id=":carlow_16_0" index="0" speed="8.93" length="24.77" shape="1876.45,1150.95 1881.70,1148.86 1885.59,1151.50 1888.36,1157.39 1890.26,1165.07"/>
    </edge>
    <edge id=":carlow_17" function="internal">
        <lane id=":carlow_17_0" index="0" speed="8.73" length="24.37" shape="1876.45,1150.95 1881.67,1148.88 1885.33,1151.63 1887.72,1157.61 1889.14,1165.21"/>
    </edge>
    <edge id=":carlow_18" function="internal">
        <lane id=":carlow_18_0" index="0" speed="7.44" length="20.51" shape="1876.45,1150.95 1880.44,1149.70 1882.58,1152.92 1883.12,1158.75 1882.31,1165.31"/>
    </edge>
    <edge id=":carlow_19" function="internal">
        <lane id=":carlow_19_0" index="0" speed="4.20" length="6.60" shape="1876.45,1150.95 1878.43,1150.49 1879.64,1150.86 1880.07,1152.05 1879.73,1154.05"/>
    </edge>
    <edge id=":carrick_0" function="internal">
        <lane id=":carrick_0_0" index="0" speed="6.12" length="9.06" shape="1122.41,2573.79 1124.25,2575.56 1126.12,2576.18 1128.02,2575.65 1129.95,2573.98"/>
    </edge>
    <edge id=":carrick_1" function="internal">
        <lane id=":carrick_1_0" index="0" speed="10.00" length="14.28" shape="1122.41,2573.79 1124.76,2576.57 1127.25,2579.03 1129.99,2581.21 1133.06,2583.16"/>
    </edge>
    <edge id=":carrick_2" function="internal">
        <lane id=":carrick_2_0" index="0" speed="8.60" length="12.51" shape="1122.41,2573.79 1124.66,2577.18 1125.87,2580.21 1126.02,2582.89 1125.11,2585.22"/>
    </edge>
    <edge id=":castlebar_0" function="internal">
        <lane id=":castlebar_0_0" index="0" speed="8.76" length="17.92" shape="303.28,2451.97 301.51,2448.73 301.78,2445.16 304.09,2441.24 308.46,2436.99"/>
    </edge>
    <edge id=":castlebar_1" function="internal">
        <lane id=":castlebar_1_0" index="0" speed="3.65" length="4.67" shape="303.28,2451.97 303.07,2450.54 303.39,2449.71 304.25,2449.46 305.65,2449.81"/>
    </edge>
    <edge id=":castlebar_2" function="internal">
        <lane id=":castlebar_2_0" index="0" speed="5.46" length="9.89" shape="303.34,2434.10 303.23,2437.30 304.04,2438.85 305.78,2438.74 308.46,2436.99"/>
    </edge>
    <edge id=":castlebar_3" function="internal">
        <lane id=":castlebar_3_0" index="0" speed="10.00" length="16.32" shape="303.34,2434.10 302.87,2439.35 303.09,2443.72 304.02,2447.20 305.65,2449.81"/>
    </edge>
    <edge id=":cavan_0" function="internal">
        <lane id=":cavan_0_0" index="0" speed="5.55" length="12.60" shape="1686.60,2629.79 1686.41,2625.20 1685.83,2623.60 1684.86,2625.00 1683.51,2629.39"/>
    </edge>
    <edge id=":clonmel_0" function="internal">
        <lane id=":clonmel_0_0" index="0" speed="3.17" length="2.63" shape="1386.42,617.43 1386.84,618.27 1387.11,618.53 1387.22,618.18 1387.20,617.23"/>
    </edge>
    <edge id=":clonmel_1" function="internal">
        <lane id=":clonmel_1_0" index="0" speed="5.56" length="7.18" shape="1386.42,617.43 1385.28,615.35 1384.01,614.18 1382.61,613.89 1381.08,614.50"/>
    </edge>
    <edge id=":cork_0" function="internal">
        <lane id=":cork_0_0" index="0" speed="5.79" length="14.38" shape="819.41,22.77 819.50,19.21 822.08,16.86 825.66,16.39 828.73,18.48"/>
    </edge>
    <edge id=":cork_1" function="internal">
        <lane id=":cork_1_0" index="0" speed="3.24" length="3.18" shape="822.36,21.52 825.29,20.29"/>
    </edge>
    <edge id=":cork_2" function="internal">
        <lane id=":cork_2_0" index="0" speed="3.65" length="4.67" shape="822.36,21.52 822.63,20.11 823.21,19.43 824.10,19.48 825.30,20.28"/>
    </edge>
    <edge id=":cork_3" function="internal">
        <lane id=":cork_3_0" index="0" speed="6.63" length="16.48" shape="827.71,7.35 824.59,6.64 823.71,8.26 825.09,12.20 828.73,18.48"/>
    </edge>
    <edge id=":cork_4" function="internal">
        <lane id=":cork_4_0" index="0" speed="7.26" length="18.67" shape="827.71,7.35 823.94,6.56 822.28,8.45 822.73,13.02 825.30,20.28"/>
    </edge>
    <edge id=":cork_5" function="internal">
        <lane id=":cork_5_0" index="0" speed="6.47" length="14.44" shape="827.71,7.35 825.72,7.19 825.14,9.08 825.98,13.03 828.24,19.04"/>
    </edge>
    <edge id=":craigavon_0" function="internal">
        <lane id=":craigavon_0_0" index="0" speed="10.00" length="25.56" shape="2149.49,3143.88 2151.03,3150.88 2153.64,3156.75 2157.32,3161.49 2162.08,3165.10"/>
    </edge>
    <edge id=":craigavon_1" function="internal">
        <lane id=":craigavon_1_0" index="0" speed="8.42" length="19.33" shape="2149.49,3143.88 2150.15,3151.71 2149.76,3157.17 2148.30,3160.25 2145.80,3160.95"/>
    </edge>
    <edge id=":craigavon_2" function="internal">
        <lane id=":craigavon_2_0" index="0" speed="7.50" length="21.24" shape="2149.49,3143.88 2148.35,3148.65 2144.28,3150.12 2138.85,3148.75 2133.66,3144.99"/>
    </edge>
    <edge id=":craigavon_3" function="internal">
        <lane id=":craigavon_3_0" index="0" speed="5.68" length="13.22" shape="2149.49,3143.88 2148.64,3146.38 2145.92,3146.32 2142.69,3144.34 2140.27,3141.07"/>
    </edge>
    <edge id=":craigavon_4" function="internal">
        <lane id=":craigavon_4_0" index="0" speed="10.00" length="31.68" shape="2143.21,3139.83 2146.37,3145.37 2151.75,3153.26 2157.58,3160.75 2162.08,3165.10"/>
    </edge>
    <edge id=":craigavon_5" function="internal">
        <lane id=":craigavon_5_0" index="0" speed="8.59" length="23.59" shape="2143.21,3139.83 2146.36,3147.85 2148.36,3154.81 2148.43,3159.56 2145.80,3160.95"/>
    </edge>
    <edge id=":craigavon_6" function="internal">
        <lane id=":craigavon_6_0" index="0" speed="6.09" length="14.99" shape="2143.21,3139.83 2143.29,3143.60 2140.87,3146.14 2137.23,3146.81 2133.66,3144.99"/>
    </edge>
    <edge id=":craigavon_7" function="internal">
        <lane id=":craigavon_7_0" index="0" speed="3.65" length="4.67" shape="2143.21,3139.83 2142.94,3141.24 2142.36,3141.92 2141.47,3141.87 2140.27,3141.07"/>
    </edge>
    <edge id=":craigavon_8" function="internal">
        <lane id=":craigavon_8_0" index="0" speed="5.49" length="12.10" shape="2131.52,3147.71 2135.43,3149.68 2137.09,3149.88 2136.50,3148.32 2133.66,3144.99"/>
    </edge>
    <edge id=":craigavon_9" function="internal">
        <lane id=":craigavon_9_0" index="0" speed="6.34" length="14.49" shape="2131.52,3147.71 2135.86,3149.63 2138.28,3149.37 2138.76,3146.93 2137.32,3142.32"/>
    </edge>
    <edge id=":craigavon_10" function="internal">
        <lane id=":craigavon_10_0" index="0" speed="10.00" length="35.16" shape="2131.52,3147.71 2162.08,3165.10"/>
    </edge>
    <edge id=":craigavon_11" function="internal">
        <lane id=":craigavon_11_0" index="0" speed="7.76" length="25.61" shape="2131.52,3147.71 2139.22,3152.27 2146.17,3156.96 2149.37,3160.35 2145.80,3160.95"/>
    </edge>
    <edge id=":derry_0" function="internal">
        <lane id=":derry_0_0" index="0" speed="7.38" length="15.20" shape="1614.24,3878.16 1612.40,3879.98 1609.77,3879.83 1606.32,3877.70 1602.06,3873.59"/>
    </edge>
    <edge id=":derry_1" function="internal">
        <lane id=":derry_1_0" index="0" speed="6.79" length="14.90" shape="1614.24,3878.16 1612.41,3880.17 1610.22,3879.73 1607.66,3876.85 1604.73,3871.51"/>
    </edge>
    <edge id=":derry_2" function="internal">
        <lane id=":derry_2_0" index="0" speed="6.43" length="16.12" shape="1614.24,3878.16 1612.14,3881.18 1610.61,3880.85 1609.67,3877.16 1609.29,3870.10"/>
    </edge>
    <edge id=":derry_3" function="internal">
        <lane id=":derry_3_0" index="0" speed="6.45" length="16.50" shape="1614.24,3878.16 1612.06,3881.39 1610.58,3881.12 1609.80,3877.36 1609.72,3870.10"/>
    </edge>
    <edge id=":derry_4" function="internal">
        <lane id=":derry_4_0" index="0" speed="10.00" length="0.60" shape="1604.59,3871.61 1604.74,3871.76 1604.82,3871.80 1604.81,3871.71 1604.73,3871.51"/>
    </edge>
    <edge id=":derry_5" function="internal">
        <lane id=":derry_5_0" index="0" speed="5.08" length="8.37" shape="1604.59,3871.61 1606.67,3873.48 1608.15,3873.85 1609.02,3872.72 1609.29,3870.10"/>
    </edge>
    <edge id=":derry_6" function="internal">
        <lane id=":derry_6_0" index="0" speed="5.22" length="8.75" shape="1604.59,3871.61 1606.76,3873.54 1608.34,3873.93 1609.33,3872.78 1609.72,3870.10"/>
    </edge>
    <edge id=":derry_7" function="internal">
        <lane id=":derry_7_0" index="0" speed="3.65" length="4.69" shape="1604.59,3871.61 1604.70,3873.06 1604.32,3873.87 1603.44,3874.04 1602.06,3873.59"/>
    </edge>
    <edge id=":dublin_0" function="internal">
        <lane id=":dublin_0_0" index="0" speed="9.35" length="20.38" shape="2319.83,1806.46 2320.90,1811.77 2319.86,1816.14 2316.71,1819.57 2311.45,1822.06"/>
    </edge>
    <edge id=":dublin_1" function="internal">
        <lane id=":dublin_1_0" index="0" speed="7.84" length="18.55" shape="2319.83,1806.46 2321.00,1811.80 2319.92,1815.38 2316.60,1817.19 2311.04,1817.24"/>
    </edge>
    <edge id=":dublin_2" function="internal">
        <lane id=":dublin_2_0" index="0" speed="3.65" length="4.67" shape="2319.83,1806.46 2319.49,1807.86 2318.88,1808.52 2317.99,1808.42 2316.83,1807.57"/>
    </edge>
    <edge id=":dublin_3" function="internal">
        <lane id=":dublin_3_0" index="0" speed="5.63" length="9.85" shape="2311.84,1811.94 2314.97,1812.60 2316.84,1812.10 2317.46,1810.42 2316.83,1807.57"/>
    </edge>
    <edge id=":dublin_4" function="internal">
        <lane id=":dublin_4_0" index="0" speed="7.14" length="19.07" shape="2311.84,1811.94 2317.56,1814.48 2319.40,1817.01 2317.37,1819.54 2311.45,1822.06"/>
    </edge>
    <edge id=":dublin_5" function="internal">
        <lane id=":dublin_5_0" index="0" speed="4.52" length="7.82" shape="2311.84,1811.94 2313.62,1813.56 2314.08,1814.99 2313.22,1816.21 2311.04,1817.24"/>
    </edge>
    <edge id=":dundalk_0" function="internal">
        <lane id=":dundalk_0_0" index="0" speed="5.48" length="9.69" shape="2247.27,2641.43 2245.93,2638.65 2244.48,2637.65 2242.91,2638.44 2241.21,2641.02"/>
    </edge>
    <edge id=":dundalk_1" function="internal">
        <lane id=":dundalk_1_0" index="0" speed="10.00" length="29.00" shape="2247.27,2641.43 2244.77,2636.06 2240.64,2628.56 2236.27,2621.19 2233.04,2616.20"/>
    </edge>
    <edge id=":dundalk_2" function="internal">
        <lane id=":dundalk_2_0" index="0" speed="10.00" length="34.95" shape="2247.27,2641.43 2234.31,2608.97"/>
    </edge>
    <edge id=":dundalk_3" function="internal">
        <lane id=":dundalk_3_0" index="0" speed="10.00" length="34.94" shape="2247.27,2641.43 2245.29,2634.86 2242.44,2624.64 2239.68,2614.40 2237.96,2607.76"/>
    </edge>
    <edge id=":dundalk_4" function="internal">
        <lane id=":dundalk_4_0" index="0" speed="4.23" length="6.43" shape="2231.85,2617.33 2233.73,2618.72 2234.56,2619.00 2234.33,2618.16 2233.04,2616.20"/>
    </edge>
    <edge id=":dundalk_5" function="internal">
        <lane id=":dundalk_5_0" index="0" speed="6.49" length="16.39" shape="2231.85,2617.33 2235.44,2619.58 2237.05,2618.94 2236.67,2615.40 2234.31,2608.97"/>
    </edge>
    <edge id=":dundalk_6" function="internal">
        <lane id=":dundalk_6_0" index="0" speed="7.19" length="19.15" shape="2231.85,2617.33 2236.16,2619.91 2238.62,2619.17 2239.22,2615.12 2237.96,2607.76"/>
    </edge>
    <edge id=":dundalk_7" function="internal">
        <lane id=":dundalk_7_0" index="0" speed="10.00" length="27.68" shape="2231.85,2617.33 2238.12,2623.40 2241.77,2629.37 2242.80,2635.24 2241.21,2641.02"/>
    </edge>
    <edge id=":ennis_0" function="internal">
        <lane id=":ennis_0_0" index="0" speed="5.96" length="11.19" shape="489.73,1201.51 487.65,1203.46 487.49,1205.29 489.26,1207.01 492.95,1208.61"/>
    </edge>
    <edge id=":ennis_1" function="internal">
        <lane id=":ennis_1_0" index="0" speed="7.17" length="13.82" shape="489.73,1201.51 487.16,1203.93 486.48,1206.60 487.68,1209.50 490.76,1212.63"/>
    </edge>
    <edge id=":ennis_2" function="internal">
        <lane id=":ennis_2_0" index="0" speed="10.00" length="14.23" shape="489.73,1201.51 486.08,1204.20 483.36,1206.86 481.58,1209.48 480.74,1212.06"/>
    </edge>
    <edge id=":enniskillen_0" function="internal">
        <lane id=":enniskillen_0_0" index="0" speed="5.46" length="10.08" shape="1463.73,3052.43 1462.11,3055.30 1462.11,3057.04 1463.75,3057.65 1467.00,3057.13"/>
    </edge>
    <edge id=":enniskillen_1" function="internal">
        <lane id=":enniskillen_1_0" index="0" speed="6.74" length="13.34" shape="1459.12,3050.96 1458.87,3054.65 1460.10,3056.91 1462.81,3057.73 1467.00,3057.13"/>
    </edge>
    <edge id=":enniskillen_2" function="internal">
        <lane id=":enniskillen_2_0" index="0" speed="10.00" length="17.21" shape="1451.09,3054.07 1453.79,3056.55 1457.34,3057.89 1461.75,3058.08 1467.00,3057.13"/>
    </edge>
    <edge id=":enniskillen_3" function="internal">
        <lane id=":enniskillen_3_0" index="0" speed="10.00" length="19.23" shape="1447.97,3059.09 1452.34,3059.34 1457.52,3058.93 1462.68,3058.11 1467.00,3057.13"/>
    </edge>
    <edge id=":enniskillen_4" function="internal">
        <lane id=":enniskillen_4_0" index="0" speed="10.00" length="17.24" shape="1452.84,3065.73 1454.00,3063.31 1456.74,3061.08 1461.08,3059.02 1467.00,3057.13"/>
    </edge>
    <edge id=":galway_0" function="internal">
        <lane id=":galway_0_0" index="0" speed="3.64" length="4.57" shape="469.93,1742.26 469.71,1741.10 470.31,1740.07 471.30,1739.59 472.28,1740.04"/>
    </edge>
    <edge id=":galway_1" function="internal">
        <lane id=":galway_1_0" index="0" speed="3.67" length="4.72" shape="469.93,1742.26 469.69,1740.83 470.00,1739.98 470.86,1739.72 472.28,1740.04"/>
    </edge>
    <edge id=":galway_2" function="internal">
        <lane id=":galway_2_0" index="0" speed="6.65" length="19.69" shape="469.97,1742.23 475.34,1747.13 477.52,1748.40 476.50,1746.04 472.28,1740.04"/>
    </edge>
    <edge id=":galway_3" function="internal">
        <lane id=":galway_3_0" index="0" speed="7.07" length="22.68" shape="469.97,1742.23 476.16,1747.92 478.61,1749.45 477.32,1746.83 472.28,1740.04"/>
    </edge>
    <edge id=":galway_4" function="internal">
        <lane id=":galway_4_0" index="0" speed="6.05" length="15.67" shape="469.97,1742.22 474.51,1745.80 476.41,1746.62 475.67,1744.71 472.28,1740.04"/>
    </edge>
    <edge id=":galway_5" function="internal">
        <lane id=":galway_5_0" index="0" speed="5.83" length="14.24" shape="469.97,1742.22 474.09,1745.44 475.84,1746.15 475.24,1744.35 472.28,1740.04"/>
    </edge>
    <edge id=":kilkenny_0" function="internal">
        <lane id=":kilkenny_0_0" index="0" speed="6.73" length="6.01" shape="1688.59,953.25 1688.39,954.80 1688.60,956.23 1689.20,957.54 1690.22,958.73"/>
    </edge>
    <edge id=":kilkenny_1" function="internal">
        <lane id=":kilkenny_1_0" index="0" speed="5.63" length="8.19" shape="1683.60,958.55 1684.69,956.96 1686.16,956.46 1688.01,957.05 1690.22,958.73"/>
    </edge>
    <edge id=":letterkenny_0" function="internal">
        <lane id=":letterkenny_0_0" index="0" speed="4.68" length="8.32" shape="1348.54,3802.77 1349.20,3799.82 1349.10,3798.69 1348.21,3799.40 1346.55,3801.93"/>
    </edge>
    <edge id=":letterkenny_1" function="internal">
        <lane id=":letterkenny_1_0" index="0" speed="6.31" length="13.56" shape="1348.54,3802.77 1347.24,3805.30 1345.39,3805.42 1342.98,3803.14 1340.01,3798.47"/>
    </edge>
    <edge id=":letterkenny_2" function="internal">
        <lane id=":letterkenny_2_0" index="0" speed="4.62" length="8.43" shape="1348.54,3802.77 1347.61,3803.82 1346.48,3802.62 1345.59,3800.16 1345.40,3797.41"/>
    </edge>
    <edge id=":letterkenny_3" function="internal">
        <lane id=":letterkenny_3_0" index="0" speed="4.70" length="8.87" shape="1348.54,3802.77 1345.81,3802.52 1344.42,3801.55 1344.36,3799.86 1345.64,3797.44"/>
    </edge>
    <edge id=":limerick_0" function="internal">
        <lane id=":limerick_0_0" index="0" speed="9.27" length="27.19" shape="744.92,980.25 744.72,971.14 745.75,963.60 748.58,959.21 753.81,959.57"/>
    </edge>
    <edge id=":limerick_1" function="internal">
        <lane id=":limerick_1_0" index="0" speed="8.73" length="26.14" shape="748.74,979.68 747.10,971.16 746.79,963.70 748.72,959.20 753.81,959.57"/>
    </edge>
    <edge id=":limerick_2" function="internal">
        <lane id=":limerick_2_0" index="0" speed="10.00" length="87.16" shape="751.23,964.77 781.56,976.93 792.09,980.12 782.85,974.33 753.81,959.57"/>
    </edge>
    <edge id=":longford_0" function="internal">
        <lane id=":longford_0_0" index="0" speed="9.26" length="14.91" shape="1355.93,2326.56 1355.00,2321.44 1354.97,2317.40 1355.84,2314.44 1357.61,2312.57"/>
    </edge>
    <edge id=":longford_1" function="internal">
        <lane id=":longford_1_0" index="0" speed="7.34" length="13.70" shape="1360.44,2324.11 1357.28,2320.22 1355.75,2317.00 1355.86,2314.45 1357.61,2312.57"/>
    </edge>
    <edge id=":longford_2" function="internal">
        <lane id=":longford_2_0" index="0" speed="10.00" length="12.37" shape="1348.61,2320.95 1350.79,2318.41 1352.72,2316.31 1354.85,2314.43 1357.61,2312.57"/>
    </edge>
    <edge id=":monaghan_0" function="internal">
        <lane id=":monaghan_0_0" index="0" speed="7.63" length="8.66" shape="1828.77,2960.28 1831.35,2959.38 1833.28,2958.22 1834.55,2956.81 1835.17,2955.15"/>
    </edge>
    <edge id=":monaghan_1" function="internal">
        <lane id=":monaghan_1_0" index="0" speed="10.00" length="9.74" shape="1831.80,2964.19 1833.22,2961.68 1834.08,2959.88 1834.65,2957.98 1835.17,2955.15"/>
    </edge>
    <edge id=":naas_0" function="internal">
        <lane id=":naas_0_0" index="0" speed="8.31" length="23.90" shape="2082.56,1616.52 2084.13,1619.24 2080.82,1622.61 2074.37,1626.25 2066.48,1629.75"/>
    </edge>
    <edge id=":naas_1" function="internal">
        <lane id=":naas_1_0" index="0" speed="7.93" length="23.49" shape="2082.56,1616.52 2084.29,1619.12 2080.55,1621.69 2073.51,1624.05 2065.33,1626.01"/>
    </edge>
    <edge id=":naas_2" function="internal">
        <lane id=":naas_2_0" index="0" speed="7.45" length="18.28" shape="2081.69,1629.71 2081.45,1627.09 2078.84,1626.22 2073.85,1627.11 2066.48,1629.75"/>
    </edge>
    <edge id=":naas_3" function="internal">
        <lane id=":naas_3_0" index="0" speed="8.08" length="19.75" shape="2081.69,1629.71 2081.44,1626.63 2078.64,1624.99 2073.27,1624.78 2065.33,1626.01"/>
    </edge>
    <edge id=":navan_0" function="internal">
        <lane id=":navan_0_0" index="0" speed="10.00" length="17.19" shape="2085.17,2188.08 2086.04,2194.24 2086.04,2199.03 2085.18,2202.44 2083.45,2204.47"/>
    </edge>
    <edge id=":navan_1" function="internal">
        <lane id=":navan_1_0" index="0" speed="3.65" length="4.67" shape="2085.17,2188.08 2084.61,2189.41 2083.90,2189.96 2083.04,2189.71 2082.02,2188.68"/>
    </edge>
    <edge id=":navan_2" function="internal">
        <lane id=":navan_2_0" index="0" speed="5.46" length="10.08" shape="2077.10,2191.61 2079.84,2193.43 2081.58,2193.55 2082.31,2191.97 2082.02,2188.68"/>
    </edge>
    <edge id=":navan_3" function="internal">
        <lane id=":navan_3_0" index="0" speed="7.72" length="16.41" shape="2077.10,2191.61 2081.86,2196.00 2084.51,2199.61 2085.04,2202.43 2083.45,2204.47"/>
    </edge>
    <edge id=":omagh_0" function="internal">
        <lane id=":omagh_0_0" index="0" speed="4.97" length="9.32" shape="1610.15,3343.19 1610.60,3346.42 1611.27,3347.50 1612.14,3346.42 1613.21,3343.18"/>
    </edge>
    <edge id=":omagh_1" function="internal">
        <lane id=":omagh_1_0" index="0" speed="6.15" length="13.86" shape="1610.15,3343.19 1610.95,3348.02 1612.33,3350.04 1614.28,3349.25 1616.82,3345.64"/>
    </edge>
    <edge id=":omagh_2" function="internal">
        <lane id=":omagh_2_0" index="0" speed="6.53" length="16.31" shape="1610.15,3343.19 1609.55,3348.08 1607.40,3351.90 1604.43,3353.44 1601.35,3351.47"/>
    </edge>
    <edge id=":omagh_3" function="internal">
        <lane id=":omagh_3_0" index="0" speed="7.74" length="28.39" shape="1610.15,3343.19 1609.16,3332.59 1608.50,3329.06 1608.18,3332.59 1608.18,3343.19"/>
    </edge>
    <edge id=":omagh_4" function="internal">
        <lane id=":omagh_4_0" index="0" speed="4.71" length="8.82" shape="1610.15,3343.19 1608.83,3345.57 1607.39,3346.45 1605.82,3345.82 1604.13,3343.69"/>
    </edge>
    <edge id=":omagh_5" function="internal">
        <lane id=":omagh_5_0" index="0" speed="9.93" length="15.20" shape="1605.53,3365.40 1606.23,3362.91 1605.77,3359.76 1604.14,3355.94 1601.35,3351.47"/>
    </edge>
    <edge id=":omagh_6" function="internal">
        <lane id=":omagh_6_0" index="0" speed="10.00" length="22.04" shape="1605.53,3365.40 1606.55,3360.88 1606.23,3354.75 1605.21,3348.52 1604.13,3343.69"/>
    </edge>
    <edge id=":omagh_7" function="internal">
        <lane id=":omagh_7_0" index="0" speed="10.00" length="22.51" shape="1605.53,3365.40 1607.03,3360.82 1607.83,3354.56 1608.15,3348.17 1608.18,3343.19"/>
    </edge>
    <edge id=":omagh_8" function="internal">
        <lane id=":omagh_8_0" index="0" speed="10.00" length="23.55" shape="1605.53,3365.40 1607.62,3360.80 1609.83,3354.49 1611.81,3348.09 1613.21,3343.18"/>
    </edge>
    <edge id=":omagh_9" function="internal">
        <lane id=":omagh_9_0" index="0" speed="10.00" length="22.76" shape="1605.53,3365.40 1616.82,3345.64"/>
    </edge>
    <edge id=":portlaoise_0" function="internal">
        <lane id=":portlaoise_0_0" index="0" speed="8.72" length="6.30" shape="1690.48,1358.51 1689.17,1359.85 1688.27,1360.86 1687.76,1362.03 1687.60,1363.82"/>
    </edge>
    <edge id=":portlaoise_1" function="internal">
        <lane id=":portlaoise_1_0" index="0" speed="10.00" length="11.59" shape="1683.05,1353.42 1684.90,1356.12 1686.34,1358.32 1687.27,1360.68 1687.60,1363.82"/>
    </edge>
    <edge id=":portlaoise_2" function="internal">
        <lane id=":portlaoise_2_0" index="0" speed="8.72" length="10.84" shape="1680.42,1356.30 1683.56,1358.17 1685.80,1360.04 1687.15,1361.93 1687.60,1363.82"/>
    </edge>
    <edge id=":portlaoise_3" function="internal">
        <lane id=":portlaoise_3_0" index="0" speed="3.69" length="4.79" shape="1684.32,1363.82 1685.14,1362.59 1685.96,1362.18 1686.78,1362.59 1687.60,1363.82"/>
    </edge>
    <edge id=":roscommon_0" function="internal">
        <lane id=":roscommon_0_0" index="0" speed="9.31" length="11.19" shape="1048.82,2226.78 1047.02,2226.87 1044.77,2226.13 1042.10,2224.57 1038.98,2222.18"/>
    </edge>
    <edge id=":roscommon_1" function="internal">
        <lane id=":roscommon_1_0" index="0" speed="6.72" length="10.26" shape="1048.82,2226.78 1046.96,2226.82 1045.35,2225.66 1043.99,2223.32 1042.88,2219.78"/>
    </edge>
    <edge id=":roscommon_2" function="internal">
        <lane id=":roscommon_2_0" index="0" speed="8.71" length="10.87" shape="1043.04,2231.65 1043.23,2229.16 1042.62,2226.75 1041.20,2224.42 1038.98,2222.18"/>
    </edge>
    <edge id=":roscommon_3" function="internal">
        <lane id=":roscommon_3_0" index="0" speed="10.00" length="12.02" shape="1043.04,2231.65 1043.66,2228.43 1043.82,2225.72 1043.55,2223.00 1042.88,2219.78"/>
    </edge>
    <edge id=":sligo_0" function="internal">
        <lane id=":sligo_0_0" index="0" speed="10.00" length="24.03" shape="878.50,2963.83 876.27,2959.18 873.58,2952.88 871.04,2946.51 869.22,2941.67"/>
    </edge>
    <edge id=":sligo_1" function="internal">