<?xml version="1.0" encoding="UTF-8"?>

<!-- generated on 2024-09-30 18:12:35 by Eclipse SUMO netconvert Version 1.19.0
<configuration xmlns:xsi="http://www.w3.org/2001/XMLSchema-instance" xsi:noNamespaceSchemaLocation="http://sumo.dlr.de/xsd/netconvertConfiguration.xsd">

    <input>
        <node-files value="nod.xml"/>
        <edge-files value="edge_xmls/00003.xml"/>
    </input>

    <output>
        <output-file value="networks/00003.net.xml"/>
    </output>

</configuration>
-->

<net version="1.16" junctionCornerDetail="5" limitTurnSpeed="5.50" xmlns:xsi="http://www.w3.org/2001/XMLSchema-instance" xsi:noNamespaceSchemaLocation="http://sumo.dlr.de/xsd/net_file.xsd">

    <location netOffset="-682.00,4368.00" convBoundary="0.00,0.00,2498.00,3881.00" origBoundary="682.00,-4368.00,3180.00,-487.00" projParameter="!"/>

    <edge id=":antrim_0" function="internal">
        <lane id=":antrim_0_0" index="0" speed="10.00" length="36.88" shape="2288.05,3468.24 2286.42,3478.65 2281.93,3484.83 2274.41,3487.26 2263.64,3486.39"/>
    </edge>
    <edge id=":antrim_1" function="internal">
        <lane id=":antrim_1_0" index="0" speed="10.00" length="34.15" shape="2288.05,3468.24 2286.27,3477.68 2281.59,3483.19 2274.31,3484.82 2264.69,3482.66"/>
    </edge>
    <edge id=":antrim_2" function="internal">
        <lane id=":antrim_2_0" index="0" speed="7.70" length="28.06" shape="2288.05,3468.24 2288.16,3457.82 2287.88,3454.38 2287.23,3457.93 2286.19,3468.46"/>
    </edge>
    <edge id=":antrim_3" function="internal">
        <lane id=":antrim_3_0" index="0" speed="3.57" length="4.06" shape="2285.42,3468.55 2285.63,3470.02 2285.82,3470.49 2286.01,3469.97 2286.19,3468.46"/>
    </edge>
    <edge id=":antrim_4" function="internal">
        <lane id=":antrim_4_0" index="0" speed="10.00" length="34.80" shape="2285.42,3468.55 2284.88,3478.31 2280.92,3484.40 2273.76,3487.02 2263.64,3486.39"/>
    </edge>
    <edge id=":antrim_5" function="internal">
        <lane id=":antrim_5_0" index="0" speed="10.00" length="31.77" shape="2285.42,3468.55 2284.64,3477.29 2280.50,3482.64 2273.64,3484.48 2264.69,3482.66"/>
    </edge>
    <edge id=":antrim_6" function="internal">
        <lane id=":antrim_6_0" index="0" speed="5.77" length="13.08" shape="2281.54,3469.38 2283.17,3473.61 2284.49,3474.86 2285.50,3473.15 2286.19,3468.46"/>
    </edge>
    <edge id=":antrim_7" function="internal">
        <lane id=":antrim_7_0" index="0" speed="10.00" length="31.39" shape="2281.54,3469.38 2282.36,3477.92 2279.18,3483.75 2272.70,3486.65 2263.64,3486.39"/>
    </edge>
    <edge id=":antrim_8" function="internal">
        <lane id=":antrim_8_0" index="0" speed="9.06" length="27.90" shape="2281.54,3469.38 2281.97,3476.84 2278.63,3481.86 2272.53,3483.96 2264.69,3482.66"/>
    </edge>
    <edge id=":athlone_0" function="internal">
        <lane id=":athlone_0_0" index="0" speed="10.00" length="19.59" shape="1256.47,1972.34 1255.84,1966.77 1256.12,1961.77 1257.31,1957.34 1259.41,1953.49"/>
    </edge>
    <edge id=":athlone_1" function="internal">
        <lane id=":athlone_1_0" index="0" speed="10.00" length="18.25" shape="1260.99,1970.37 1258.28,1965.81 1257.11,1961.47 1257.49,1957.37 1259.41,1953.49"/>
    </edge>
    <edge id=":athlone_2" function="internal">
        <lane id=":athlone_2_0" index="0" speed="6.04" length="9.07" shape="1251.97,1953.80 1253.91,1955.51 1255.79,1956.03 1257.63,1955.35 1259.41,1953.49"/>
    </edge>
    <edge id=":athlone_3" function="internal">
        <lane id=":athlone_3_0" index="0" speed="10.00" length="16.26" shape="1249.62,1966.47 1259.41,1953.49"/>
    </edge>
    <edge id=":belfast_0" function="internal">
        <lane id=":belfast_0_0" index="0" speed="4.17" length="6.03" shape="2495.61,3355.65 2494.16,3354.49 2493.55,3354.45 2493.80,3355.52 2494.90,3357.72"/>
    </edge>
    <edge id=":belfast_1" function="internal">
        <lane id=":belfast_1_0" index="0" speed="8.09" length="31.14" shape="2495.61,3355.65 2484.94,3346.08 2479.82,3341.90 2480.23,3343.12 2486.19,3349.73"/>
    </edge>
    <edge id=":belfast_2" function="internal">
        <lane id=":belfast_2_0" index="0" speed="5.51" length="11.05" shape="2483.47,3354.18 2487.17,3354.91 2488.85,3354.42 2488.53,3352.69 2486.19,3349.73"/>
    </edge>
    <edge id=":belfast_3" function="internal">
        <lane id=":belfast_3_0" index="0" speed="5.99" length="12.00" shape="2483.47,3354.18 2485.73,3354.98 2489.73,3356.38 2493.46,3357.57 2494.90,3357.72"/>
    </edge>
    <edge id=":bray_0" function="internal">
        <lane id=":bray_0_0" index="0" speed="10.00" length="30.64" shape="2444.66,1645.90 2444.45,1652.03 2442.82,1661.04 2440.49,1669.92 2438.17,1675.63"/>
    </edge>
    <edge id=":bray_1" function="internal">
        <lane id=":bray_1_0" index="0" speed="6.48" length="15.59" shape="2444.66,1645.90 2444.87,1650.77 2443.75,1654.93 2441.54,1657.05 2438.45,1655.77"/>
    </edge>
    <edge id=":bray_2" function="internal">
        <lane id=":bray_2_0" index="0" speed="10.00" length="23.98" shape="2440.46,1653.74 2443.18,1657.74 2443.70,1662.72 2442.03,1668.68 2438.17,1675.63"/>
    </edge>
    <edge id=":bray_3" function="internal">
        <lane id=":bray_3_0" index="0" speed="3.53" length="4.17" shape="2440.46,1653.74 2440.72,1655.01 2440.47,1655.77 2439.72,1656.02 2438.45,1655.77"/>
    </edge>
    <edge id=":bray_4" function="internal">
        <lane id=":bray_4_0" index="0" speed="5.76" length="9.16" shape="2436.96,1662.60 2439.35,1661.34 2440.39,1659.78 2440.10,1657.92 2438.45,1655.77"/>
    </edge>
    <edge id=":bray_5" function="internal">
        <lane id=":bray_5_0" index="0" speed="6.85" length="17.38" shape="2436.96,1662.60 2440.60,1662.73 2441.64,1665.91 2440.64,1670.69 2438.17,1675.63"/>
    </edge>
    <edge id=":bray_6" function="internal">
        <lane id=":bray_6_0" index="0" speed="5.55" length="11.43" shape="2442.97,1677.31 2443.00,1673.37 2442.21,1671.78 2440.60,1672.53 2438.17,1675.63"/>
    </edge>
    <edge id=":bray_7" function="internal">
        <lane id=":bray_7_0" index="0" speed="10.00" length="22.62" shape="2442.97,1677.31 2443.20,1670.08 2442.52,1664.08 2440.94,1659.31 2438.45,1655.77"/>
    </edge>
    <edge id=":carlow_0" function="internal">
        <lane id=":carlow_0_0" index="0" speed="10.00" length="12.42" shape="1878.91,1151.23 1880.96,1148.59 1882.68,1146.29 1884.29,1143.93 1886.05,1141.08"/>
    </edge>
    <edge id=":carlow_1" function="internal">
        <lane id=":carlow_1_0" index="0" speed="6.83" length="10.69" shape="1878.91,1151.23 1881.64,1148.05 1883.93,1146.09 1885.78,1145.35 1887.19,1145.84"/>
    </edge>
    <edge id=":carlow_2" function="internal">
        <lane id=":carlow_2_0" index="0" speed="10.00" length="12.29" shape="1882.48,1152.73 1882.96,1149.42 1883.56,1146.66 1884.51,1144.02 1886.05,1141.08"/>
    </edge>
    <edge id=":carlow_3" function="internal">
        <lane id=":carlow_3_0" index="0" speed="5.83" length="10.30" shape="1882.48,1152.73 1883.28,1148.56 1884.33,1146.02 1885.63,1145.11 1887.19,1145.84"/>
    </edge>
    <edge id=":carrick_0" function="internal">
        <lane id=":carrick_0_0" index="0" speed="4.11" length="4.75" shape="1127.59,2581.21 1127.22,2582.68 1126.63,2583.30 1125.80,2583.07 1124.74,2581.98"/>
    </edge>
    <edge id=":castlebar_0" function="internal">
        <lane id=":castlebar_0_0" index="0" speed="7.54" length="15.38" shape="303.07,2452.61 301.27,2449.14 301.53,2446.10 303.85,2443.48 308.24,2441.28"/>
    </edge>
    <edge id=":castlebar_1" function="internal">
        <lane id=":castlebar_1_0" index="0" speed="3.65" length="4.67" shape="303.07,2452.61 302.97,2451.17 303.36,2450.37 304.24,2450.20 305.60,2450.66"/>
    </edge>
    <edge id=":castlebar_2" function="internal">
        <lane id=":castlebar_2_0" index="0" speed="5.70" length="9.21" shape="302.93,2436.96 302.90,2439.71 303.78,2441.35 305.56,2441.87 308.24,2441.28"/>
    </edge>
    <edge id=":castlebar_3" function="internal">
        <lane id=":castlebar_3_0" index="0" speed="10.00" length="14.32" shape="302.93,2436.96 302.63,2441.04 302.97,2444.69 303.96,2447.89 305.60,2450.66"/>
    </edge>
    <edge id=":cavan_0" function="internal">
        <lane id=":cavan_0_0" index="0" speed="10.00" length="31.81" shape="1689.81,2644.36 1688.19,2638.22 1686.72,2628.79 1685.76,2619.28 1685.69,2612.92"/>
    </edge>
    <edge id=":cavan_1" function="internal">
        <lane id=":cavan_1_0" index="0" speed="10.00" length="53.41" shape="1689.81,2644.36 1687.87,2635.76 1688.61,2624.27 1692.03,2609.89 1698.12,2592.63"/>
    </edge>
    <edge id=":cavan_2" function="internal">
        <lane id=":cavan_2_0" index="0" speed="10.00" length="40.35" shape="1714.03,2601.29 1704.38,2610.72 1694.65,2618.09 1687.52,2619.97 1685.69,2612.92"/>
    </edge>
    <edge id=":cavan_3" function="internal">
        <lane id=":cavan_3_0" index="0" speed="7.70" length="24.98" shape="1714.03,2601.29 1708.12,2604.35 1702.10,2603.22 1698.07,2598.96 1698.12,2592.63"/>
    </edge>
    <edge id=":cavan_4" function="internal">
        <lane id=":cavan_4_0" index="0" speed="9.69" length="38.21" shape="1711.14,2599.23 1702.69,2608.94 1693.90,2616.78 1687.37,2619.27 1685.69,2612.92"/>
    </edge>
    <edge id=":cavan_5" function="internal">
        <lane id=":cavan_5_0" index="0" speed="7.04" length="21.33" shape="1711.14,2599.23 1705.41,2602.47 1701.33,2602.44 1698.90,2599.17 1698.12,2592.63"/>
    </edge>
    <edge id=":cavan_6" function="internal">
        <lane id=":cavan_6_0" index="0" speed="3.50" length="3.77" shape="1684.82,2612.92 1685.01,2614.29 1685.22,2614.74 1685.45,2614.28 1685.69,2612.92"/>
    </edge>
    <edge id=":cavan_7" function="internal">
        <lane id=":cavan_7_0" index="0" speed="8.43" length="29.08" shape="1684.82,2612.92 1686.06,2615.57 1688.69,2613.07 1692.71,2605.42 1698.12,2592.63"/>
    </edge>
    <edge id=":cavan_8" function="internal">
        <lane id=":cavan_8_0" index="0" speed="4.12" length="5.95" shape="1684.08,2612.93 1684.50,2615.05 1684.90,2615.76 1685.30,2615.05 1685.69,2612.92"/>
    </edge>
    <edge id=":cavan_9" function="internal">
        <lane id=":cavan_9_0" index="0" speed="8.61" length="29.83" shape="1684.08,2612.93 1685.57,2615.77 1688.40,2613.33 1692.59,2605.62 1698.12,2592.63"/>
    </edge>
    <edge id=":clonmel_0" function="internal">
        <lane id=":clonmel_0_0" index="0" speed="6.80" length="19.50" shape="1389.56,642.23 1387.65,632.85 1386.19,626.89 1385.17,624.37 1384.60,625.29"/>
    </edge>
    <edge id=":clonmel_1" function="internal">
        <lane id=":clonmel_1_0" index="0" speed="5.90" length="14.68" shape="1389.56,642.23 1390.34,638.60 1393.31,636.60 1396.92,636.68 1399.65,639.28"/>
    </edge>
    <edge id=":clonmel_2" function="internal">
        <lane id=":clonmel_2_0" index="0" speed="4.86" length="9.69" shape="1389.56,642.23 1390.13,639.86 1392.19,638.58 1394.59,638.69 1396.22,640.49"/>
    </edge>
    <edge id=":clonmel_3" function="internal">
        <lane id=":clonmel_3_0" index="0" speed="3.10" length="2.69" shape="1389.56,642.23 1389.83,641.45 1390.21,641.11 1390.72,641.22 1391.34,641.77"/>
    </edge>
    <edge id=":clonmel_4" function="internal">
        <lane id=":clonmel_4_0" index="0" speed="7.13" length="21.15" shape="1398.69,625.82 1395.44,623.38 1394.52,624.81 1395.92,630.11 1399.65,639.28"/>
    </edge>
    <edge id=":clonmel_5" function="internal">
        <lane id=":clonmel_5_0" index="0" speed="7.67" length="23.69" shape="1398.69,625.82 1394.70,622.93 1392.95,624.41 1393.46,630.27 1396.22,640.49"/>
    </edge>
    <edge id=":clonmel_6" function="internal">
        <lane id=":clonmel_6_0" index="0" speed="8.37" length="26.68" shape="1398.69,625.82 1393.96,622.58 1391.15,624.16 1390.28,630.55 1391.34,641.77"/>
    </edge>
    <edge id=":clonmel_7" function="internal">
        <lane id=":clonmel_7_0" index="0" speed="7.71" length="19.62" shape="1398.69,625.82 1393.12,621.13 1388.91,619.48 1386.07,620.87 1384.60,625.29"/>
    </edge>
    <edge id=":cork_0" function="internal">
        <lane id=":cork_0_0" index="0" speed="3.94" length="3.53" shape="814.18,-1.37 815.14,-1.78 815.86,-1.71 816.34,-1.18 816.59,-0.17"/>
    </edge>
    <edge id=":craigavon_0" function="internal">
        <lane id=":craigavon_0_0" index="0" speed="10.00" length="17.66" shape="2153.75,3148.13 2152.96,3152.26 2151.86,3156.83 2150.36,3161.23 2148.38,3164.83"/>
    </edge>
    <edge id=":craigavon_1" function="internal">
        <lane id=":craigavon_1_0" index="0" speed="7.16" length="17.58" shape="2153.75,3148.13 2152.08,3154.45 2149.89,3157.63 2147.18,3157.67 2143.96,3154.57"/>
    </edge>
    <edge id=":craigavon_2" function="internal">
        <lane id=":craigavon_2_0" index="0" speed="10.00" length="17.21" shape="2150.14,3148.03 2150.55,3152.19 2150.61,3156.79 2150.01,3161.22 2148.38,3164.83"/>
    </edge>
    <edge id=":craigavon_3" function="internal">
        <lane id=":craigavon_3_0" index="0" speed="6.81" length="18.03" shape="2150.14,3148.03 2150.57,3155.10 2149.69,3158.55 2147.48,3158.37 2143.96,3154.57"/>
    </edge>
    <edge id=":craigavon_4" function="internal">
        <lane id=":craigavon_4_0" index="0" speed="9.06" length="13.40" shape="2147.00,3152.32 2148.94,3156.01 2149.82,3159.32 2149.63,3162.27 2148.38,3164.83"/>
    </edge>
    <edge id=":craigavon_5" function="internal">
        <lane id=":craigavon_5_0" index="0" speed="3.90" length="5.53" shape="2147.00,3152.32 2147.08,3154.02 2146.61,3154.97 2145.56,3155.15 2143.96,3154.57"/>
    </edge>
    <edge id=":derry_0" function="internal">
        <lane id=":derry_0_0" index="0" speed="8.29" length="21.50" shape="1614.68,3878.75 1611.88,3879.78 1608.71,3876.88 1605.41,3871.29 1602.19,3864.26"/>
    </edge>
    <edge id=":derry_1" function="internal">
        <lane id=":derry_1_0" index="0" speed="7.76" length="20.88" shape="1614.68,3878.75 1611.97,3879.84 1609.61,3876.50 1607.63,3870.38 1606.06,3863.10"/>
    </edge>
    <edge id=":dublin_0" function="internal">
        <lane id=":dublin_0_0" index="0" speed="9.97" length="14.35" shape="2319.25,1813.68 2321.15,1815.39 2322.47,1818.15 2323.22,1821.96 2323.39,1826.81"/>
    </edge>
    <edge id=":dublin_1" function="internal">
        <lane id=":dublin_1_0" index="0" speed="8.06" length="15.60" shape="2319.25,1813.68 2321.00,1815.58 2321.14,1818.52 2319.69,1822.49 2316.64,1827.49"/>
    </edge>
    <edge id=":dublin_2" function="internal">
        <lane id=":dublin_2_0" index="0" speed="7.88" length="15.48" shape="2319.25,1813.68 2321.00,1815.58 2321.05,1818.45 2319.42,1822.29 2316.11,1827.12"/>
    </edge>
    <edge id=":dublin_3" function="internal">
        <lane id=":dublin_3_0" index="0" speed="6.84" length="14.65" shape="2319.25,1813.68 2321.17,1815.55 2320.76,1817.80 2318.03,1820.44 2312.98,1823.46"/>
    </edge>
    <edge id=":dublin_4" function="internal">
        <lane id=":dublin_4_0" index="0" speed="6.29" length="16.01" shape="2319.25,1813.68 2322.98,1816.15 2323.21,1817.62 2319.95,1818.07 2313.20,1817.51"/>
    </edge>
    <edge id=":dundalk_0" function="internal">
        <lane id=":dundalk_0_0" index="0" speed="10.00" length="38.55" shape="2232.70,2598.11 2235.73,2604.99 2240.37,2616.04 2244.47,2627.15 2245.87,2634.22"/>
    </edge>
    <edge id=":dundalk_1" function="internal">
        <lane id=":dundalk_1_0" index="0" speed="3.65" length="4.67" shape="2232.70,2598.11 2232.45,2599.53 2231.88,2600.22 2230.99,2600.18 2229.77,2599.40"/>
    </edge>
    <edge id=":dundalk_2" function="internal">
        <lane id=":dundalk_2_0" index="0" speed="6.72" length="19.80" shape="2225.95,2600.95 2230.51,2606.82 2232.66,2608.52 2232.42,2606.04 2229.77,2599.40"/>
    </edge>
    <edge id=":dundalk_3" function="internal">
        <lane id=":dundalk_3_0" index="0" speed="10.00" length="39.00" shape="2225.95,2600.95 2234.98,2613.78 2241.30,2623.60 2244.93,2630.41 2245.87,2634.22"/>
    </edge>
    <edge id=":dundalk_4" function="internal">
        <lane id=":dundalk_4_0" index="0" speed="7.69" length="25.51" shape="2223.14,2603.22 2229.69,2609.82 2232.97,2611.38 2233.00,2607.91 2229.77,2599.40"/>
    </edge>
    <edge id=":dundalk_5" function="internal">
        <lane id=":dundalk_5_0" index="0" speed="10.00" length="38.74" shape="2223.14,2603.22 2233.40,2615.02 2240.61,2624.12 2244.76,2630.52 2245.87,2634.22"/>
    </edge>
    <edge id=":dundalk_6" function="internal">
        <lane id=":dundalk_6_0" index="0" speed="10.00" length="32.33" shape="2239.05,2629.77 2239.86,2627.54 2238.59,2621.74 2235.22,2612.36 2229.77,2599.40"/>
    </edge>
    <edge id=":dundalk_7" function="internal">
        <lane id=":dundalk_7_0" index="0" speed="6.14" length="10.43" shape="2239.05,2629.77 2242.46,2629.34 2244.73,2629.94 2245.87,2631.56 2245.87,2634.22"/>
    </edge>
    <edge id=":ennis_0" function="internal">
        <lane id=":ennis_0_0" index="0" speed="5.91" length="13.93" shape="483.32,1227.93 481.91,1222.96 480.64,1221.18 479.51,1222.62 478.53,1227.27"/>
    </edge>
    <edge id=":ennis_1" function="internal">
        <lane id=":ennis_1_0" index="0" speed="10.00" length="22.05" shape="483.32,1227.93 482.48,1223.12 481.50,1216.96 480.21,1210.94 478.42,1206.52"/>
    </edge>
    <edge id=":ennis_2" function="internal">
        <lane id=":ennis_2_0" index="0" speed="9.09" length="33.18" shape="495.13,1245.89 488.70,1231.98 483.79,1224.24 480.40,1222.67 478.53,1227.27"/>
    </edge>
    <edge id=":ennis_3" function="internal">
        <lane id=":ennis_3_0" index="0" speed="10.00" length="42.77" shape="495.13,1245.89 492.09,1238.38 487.09,1226.04 481.93,1213.78 478.42,1206.52"/>
    </edge>
    <edge id=":ennis_4" function="internal">
        <lane id=":ennis_4_0" index="0" speed="9.43" length="34.64" shape="498.32,1244.38 490.54,1230.83 484.65,1223.47 480.65,1222.28 478.53,1227.27"/>
    </edge>
    <edge id=":ennis_5" function="internal">
        <lane id=":ennis_5_0" index="0" speed="10.00" length="42.77" shape="498.32,1244.38 494.62,1237.18 488.54,1225.35 482.38,1213.57 478.42,1206.52"/>
    </edge>
    <edge id=":ennis_6" function="internal">
        <lane id=":ennis_6_0" index="0" speed="7.70" length="19.82" shape="489.48,1218.46 485.65,1215.66 482.55,1216.19 480.18,1220.06 478.53,1227.27"/>
    </edge>
    <edge id=":ennis_7" function="internal">
        <lane id=":ennis_7_0" index="0" speed="10.00" length="16.29" shape="489.48,1218.46 486.70,1215.64 483.71,1212.68 480.84,1209.63 478.42,1206.52"/>
    </edge>
    <edge id=":enniskillen_0" function="internal">
        <lane id=":enniskillen_0_0" index="0" speed="5.51" length="11.05" shape="1476.44,3061.23 1472.89,3062.51 1471.70,3063.80 1472.87,3065.11 1476.39,3066.45"/>
    </edge>
    <edge id=":enniskillen_1" function="internal">
        <lane id=":enniskillen_1_0" index="0" speed="10.00" length="46.87" shape="1476.44,3061.23 1466.39,3061.80 1457.13,3057.94 1448.64,3049.63 1440.93,3036.88"/>
    </edge>
    <edge id=":enniskillen_2" function="internal">
        <lane id=":enniskillen_2_0" index="0" speed="10.00" length="43.19" shape="1475.61,3058.14 1465.54,3058.90 1456.97,3055.37 1449.92,3047.56 1444.36,3035.47"/>
    </edge>
    <edge id=":enniskillen_3" function="internal">
        <lane id=":enniskillen_3_0" index="0" speed="8.49" length="20.15" shape="1460.77,3056.52 1460.55,3058.85 1463.09,3061.28 1468.37,3063.81 1476.39,3066.45"/>
    </edge>
    <edge id=":enniskillen_4" function="internal">
        <lane id=":enniskillen_4_0" index="0" speed="10.00" length="31.64" shape="1460.77,3056.52 1456.51,3058.44 1451.53,3054.62 1446.20,3046.84 1440.93,3036.88"/>
    </edge>
    <edge id=":enniskillen_5" function="internal">
        <lane id=":enniskillen_5_0" index="0" speed="9.17" length="28.19" shape="1460.77,3056.52 1457.28,3056.31 1452.46,3050.84 1447.68,3042.95 1444.36,3035.47"/>
    </edge>
    <edge id=":galway_0" function="internal">
        <lane id=":galway_0_0" index="0" speed="9.85" length="32.16" shape="478.49,1768.52 475.53,1758.17 474.37,1749.13 476.23,1743.29 482.34,1742.57"/>
    </edge>
    <edge id=":galway_1" function="internal">
        <lane id=":galway_1_0" index="0" speed="7.75" length="23.87" shape="478.49,1768.52 478.39,1762.10 481.72,1757.48 486.99,1755.82 492.72,1758.25"/>
    </edge>
    <edge id=":galway_2" function="internal">
        <lane id=":galway_2_0" index="0" speed="4.47" length="7.95" shape="478.49,1768.52 478.97,1766.12 479.97,1764.97 481.49,1765.08 483.52,1766.45"/>
    </edge>
    <edge id=":galway_3" function="internal">
        <lane id=":galway_3_0" index="0" speed="6.27" length="16.61" shape="487.02,1764.15 483.13,1759.58 481.25,1758.44 481.38,1760.73 483.52,1766.45"/>
    </edge>
    <edge id=":galway_4" function="internal">
        <lane id=":galway_4_0" index="0" speed="8.69" length="29.09" shape="487.02,1764.15 481.45,1756.22 477.43,1748.47 477.03,1743.16 482.34,1742.57"/>
    </edge>
    <edge id=":galway_5" function="internal">
        <lane id=":galway_5_0" index="0" speed="5.37" length="11.98" shape="487.02,1764.15 486.24,1760.54 486.92,1758.35 489.08,1757.59 492.72,1758.25"/>
    </edge>
    <edge id=":kilkenny_0" function="internal">
        <lane id=":kilkenny_0_0" index="0" speed="4.10" length="1.44" shape="1686.94,958.29 1686.62,958.48 1686.29,958.58 1685.93,958.60 1685.57,958.54"/>
    </edge>
    <edge id=":letterkenny_0" function="internal">
        <lane id=":letterkenny_0_0" index="0" speed="4.91" length="9.39" shape="1341.94,3792.31 1342.00,3794.76 1340.54,3796.58 1338.37,3797.20 1336.33,3796.05"/>
    </edge>
    <edge id=":letterkenny_1" function="internal">
        <lane id=":letterkenny_1_0" index="0" speed="3.65" length="4.67" shape="1338.86,3794.10 1338.96,3795.54 1338.57,3796.34 1337.69,3796.51 1336.33,3796.05"/>
    </edge>
    <edge id=":limerick_0" function="internal">
        <lane id=":limerick_0_0" index="0" speed="10.00" length="30.71" shape="751.32,980.76 748.24,969.74 747.28,961.27 748.44,955.35 751.73,951.98"/>
    </edge>
    <edge id=":limerick_1" function="internal">
        <lane id=":limerick_1_0" index="0" speed="10.00" length="37.06" shape="751.32,980.76 751.20,971.76 756.91,966.98 766.28,966.16 777.11,969.05"/>
    </edge>
    <edge id=":limerick_2" function="internal">
        <lane id=":limerick_2_0" index="0" speed="9.87" length="35.43" shape="751.32,980.76 751.32,972.27 756.99,967.92 766.06,967.47 776.29,970.68"/>
    </edge>
    <edge id=":limerick_3" function="internal">
        <lane id=":limerick_3_0" index="0" speed="9.63" length="34.24" shape="751.32,980.76 751.41,972.65 757.03,968.63 765.89,968.46 775.67,971.90"/>
    </edge>
    <edge id=":limerick_4" function="internal">
        <lane id=":limerick_4_0" index="0" speed="8.30" length="27.83" shape="751.32,980.76 751.80,974.86 757.07,973.06 764.61,974.75 771.93,979.31"/>
    </edge>
    <edge id=":limerick_5" function="internal">
        <lane id=":limerick_5_0" index="0" speed="7.74" length="24.94" shape="751.32,980.76 751.85,975.81 756.72,974.96 763.48,977.35 769.70,982.15"/>
    </edge>
    <edge id=":limerick_6" function="internal">
        <lane id=":limerick_6_0" index="0" speed="5.65" length="13.21" shape="751.32,980.76 751.37,976.68 752.64,974.50 755.16,974.21 758.90,975.82"/>
    </edge>
    <edge id=":limerick_7" function="internal">
        <lane id=":limerick_7_0" index="0" speed="7.43" length="24.01" shape="774.84,973.54 767.04,970.13 763.95,969.96 765.58,973.02 771.93,979.31"/>
    </edge>
    <edge id=":limerick_8" function="internal">
        <lane id=":limerick_8_0" index="0" speed="8.15" length="28.20" shape="774.84,973.54 765.86,969.79 762.00,969.98 763.28,974.10 769.70,982.15"/>
    </edge>
    <edge id=":limerick_9" function="internal">
        <lane id=":limerick_9_0" index="0" speed="8.23" length="26.91" shape="774.84,973.54 764.32,968.97 758.15,967.83 756.35,970.11 758.90,975.82"/>
    </edge>
    <edge id=":limerick_10" function="internal">
        <lane id=":limerick_10_0" index="0" speed="10.00" length="35.77" shape="774.84,973.54 763.38,967.47 754.14,961.40 749.48,956.01 751.73,951.98"/>
    </edge>
    <edge id=":limerick_11" function="internal">
        <lane id=":limerick_11_0" index="0" speed="4.27" length="7.11" shape="774.84,973.54 773.78,972.16 774.07,970.41 775.32,969.11 777.11,969.05"/>
    </edge>
    <edge id=":limerick_12" function="internal">
        <lane id=":limerick_12_0" index="0" speed="9.65" length="45.77" shape="774.84,973.54 790.26,981.04 795.54,983.26 790.68,980.22 775.67,971.90"/>
    </edge>
    <edge id=":limerick_13" function="internal">
        <lane id=":limerick_13_0" index="0" speed="3.65" length="4.67" shape="774.84,973.54 774.13,972.28 774.14,971.39 774.85,970.86 776.29,970.68"/>
    </edge>
    <edge id=":longford_0" function="internal">
        <lane id=":longford_0_0" index="0" speed="3.92" length="3.32" shape="1359.82,2315.31 1359.03,2315.87 1358.71,2316.49 1358.86,2317.17 1359.47,2317.92"/>
    </edge>
    <edge id=":monaghan_0" function="internal">
        <lane id=":monaghan_0_0" index="0" speed="5.70" length="12.59" shape="1822.68,2945.96 1826.18,2948.69 1827.98,2949.13 1828.10,2947.28 1826.52,2943.13"/>
    </edge>
    <edge id=":monaghan_1" function="internal">
        <lane id=":monaghan_1_0" index="0" speed="6.61" length="15.92" shape="1822.68,2945.96 1827.28,2949.44 1830.24,2950.19 1831.55,2948.21 1831.21,2943.50"/>
    </edge>
    <edge id=":monaghan_2" function="internal">
        <lane id=":monaghan_2_0" index="0" speed="8.95" length="25.84" shape="1822.68,2945.96 1828.24,2949.39 1832.72,2948.77 1836.11,2944.11 1838.42,2935.39"/>
    </edge>
    <edge id=":monaghan_3" function="internal">
        <lane id=":monaghan_3_0" index="0" speed="9.65" length="27.73" shape="1822.68,2945.96 1828.61,2949.56 1833.82,2949.16 1838.33,2944.73 1842.12,2936.30"/>
    </edge>
    <edge id=":monaghan_4" function="internal">
        <lane id=":monaghan_4_0" index="0" speed="9.17" length="27.36" shape="1822.68,2945.96 1829.04,2952.22 1833.40,2958.32 1834.06,2963.44 1829.33,2966.75"/>
        <lane id=":monaghan_4_1" index="1" speed="8.50" length="23.28" shape="1822.68,2945.96 1828.11,2951.30 1831.85,2956.50 1832.47,2960.85 1828.50,2963.66"/>
    </edge>
    <edge id=":naas_0" function="internal">
        <lane id=":naas_0_0" index="0" speed="9.31" length="11.12" shape="2080.76,1615.62 2083.74,1617.37 2085.93,1619.26 2087.35,1621.30 2087.98,1623.50"/>
    </edge>
    <edge id=":naas_1" function="internal">
        <lane id=":naas_1_0" index="0" speed="3.65" length="4.67" shape="2080.76,1615.62 2081.48,1616.87 2081.48,1617.77 2080.77,1618.31 2079.34,1618.49"/>
    </edge>
    <edge id=":naas_2" function="internal">
        <lane id=":naas_2_0" index="0" speed="6.52" length="8.51" shape="2082.06,1625.58 2082.61,1623.34 2082.34,1621.41 2081.25,1619.79 2079.34,1618.49"/>
    </edge>
    <edge id=":naas_3" function="internal">
        <lane id=":naas_3_0" index="0" speed="5.86" length="13.01" shape="2082.06,1625.58 2084.25,1620.88 2085.96,1618.96 2087.21,1619.84 2087.98,1623.50"/>
    </edge>
    <edge id=":navan_0" function="internal">
        <lane id=":navan_0_0" index="0" speed="10.00" length="29.46" shape="2091.66,2195.40 2087.97,2200.14 2082.32,2206.78 2076.55,2213.33 2072.51,2217.78"/>
    </edge>
    <edge id=":navan_1" function="internal">
        <lane id=":navan_1_0" index="0" speed="10.00" length="28.72" shape="2084.17,2192.89 2084.84,2197.61 2083.12,2203.33 2079.00,2210.05 2072.51,2217.78"/>
    </edge>
    <edge id=":navan_2" function="internal">
        <lane id=":navan_2_0" index="0" speed="9.58" length="28.35" shape="2072.23,2195.41 2078.51,2199.07 2080.03,2204.47 2077.72,2210.93 2072.51,2217.78"/>
    </edge>
    <edge id=":navan_3" function="internal">
        <lane id=":navan_3_0" index="0" speed="8.18" length="23.72" shape="2071.68,2199.74 2077.00,2201.43 2078.42,2205.92 2076.68,2211.84 2072.51,2217.78"/>
    </edge>
    <edge id=":navan_4" function="internal">
        <lane id=":navan_4_0" index="0" speed="8.95" length="34.66" shape="2065.93,2245.71 2072.07,2230.00 2075.21,2220.11 2075.36,2216.04 2072.51,2217.78"/>
    </edge>
    <edge id=":navan_5" function="internal">
        <lane id=":navan_5_0" index="0" speed="9.27" length="36.25" shape="2069.19,2246.91 2074.28,2230.27 2076.53,2219.87 2075.94,2215.71 2072.51,2217.78"/>
    </edge>
    <edge id=":omagh_0" function="internal">
        <lane id=":omagh_0_0" index="0" speed="10.00" length="15.04" shape="1613.63,3363.32 1611.26,3362.31 1608.81,3360.17 1606.31,3356.90 1603.74,3352.51"/>
    </edge>
    <edge id=":omagh_1" function="internal">
        <lane id=":omagh_1_0" index="0" speed="9.32" length="17.40" shape="1613.63,3363.32 1611.36,3361.96 1609.81,3358.90 1608.99,3354.13 1608.91,3347.65"/>
    </edge>
    <edge id=":omagh_2" function="internal">
        <lane id=":omagh_2_0" index="0" speed="8.02" length="16.45" shape="1613.63,3363.32 1611.42,3361.98 1610.63,3359.09 1611.28,3354.63 1613.35,3348.62"/>
    </edge>
    <edge id=":portlaoise_0" function="internal">
        <lane id=":portlaoise_0_0" index="0" speed="3.65" length="4.67" shape="1687.79,1369.04 1688.04,1367.61 1688.61,1366.93 1689.50,1366.97 1690.72,1367.75"/>
    </edge>
    <edge id=":portlaoise_1" function="internal">
        <lane id=":portlaoise_1_0" index="0" speed="10.00" length="13.54" shape="1682.24,1357.65 1685.22,1359.41 1687.45,1361.72 1689.19,1364.51 1690.72,1367.75"/>
    </edge>
    <edge id=":portlaoise_2" function="internal">
        <lane id=":portlaoise_2_0" index="0" speed="6.86" length="14.28" shape="1680.44,1366.01 1683.29,1363.03 1685.96,1362.33 1688.43,1363.90 1690.72,1367.75"/>
    </edge>
    <edge id=":portlaoise_3" function="internal">
        <lane id=":portlaoise_3_0" index="0" speed="6.53" length="16.87" shape="1684.07,1369.75 1684.71,1363.72 1686.03,1361.37 1688.03,1362.72 1690.72,1367.75"/>
    </edge>
    <edge id=":roscommon_0" function="internal">