<?xml version="1.0" encoding="UTF-8"?>

<!-- generated on 2024-09-30 18:12:35 by Eclipse SUMO netconvert Version 1.19.0
<configuration xmlns:xsi="http://www.w3.org/2001/XMLSchema-instance" xsi:noNamespaceSchemaLocation="http://sumo.dlr.de/xsd/netconvertConfiguration.xsd">

    <input>
        <node-files value="nod.xml"/>
        <edge-files value="edge_xmls/00004.xml"/>
    </input>

    <output>
        <output-file value="networks/00004.net.xml"/>
    </output>

</configuration>
-->

<net version="1.16" junctionCornerDetail="5" limitTurnSpeed="5.50" xmlns:xsi="http://www.w3.org/2001/XMLSchema-instance" xsi:noNamespaceSchemaLocation="http://sumo.dlr.de/xsd/net_file.xsd">

    <location netOffset="-682.00,4368.00" convBoundary="0.00,0.00,2498.00,3881.00" origBoundary="682.00,-4368.00,3180.00,-487.00" projParameter="!"/>

    <edge id=":antrim_0" function="internal">
        <lane id=":antrim_0_0" index="0" speed="6.78" length="19.58" shape="2283.58,3451.30 2282.24,3456.22 2278.26,3458.91 2273.56,3458.79 2270.04,3455.26"/>
    </edge>
    <edge id=":antrim_1" function="internal">
        <lane id=":antrim_1_0" index="0" speed="6.00" length="15.42" shape="2283.58,3451.30 2282.00,3455.79 2279.77,3457.73 2276.89,3457.10 2273.35,3453.92"/>
    </edge>
    <edge id=":antrim_2" function="internal">
        <lane id=":antrim_2_0" index="0" speed="7.59" length="25.44" shape="2264.69,3458.36 2270.62,3465.52 2273.49,3467.39 2273.29,3463.97 2270.04,3455.26"/>
    </edge>
    <edge id=":antrim_3" function="internal">
        <lane id=":antrim_3_0" index="0" speed="8.32" length="29.83" shape="2264.69,3458.36 2271.63,3466.49 2275.38,3468.46 2275.96,3464.27 2273.35,3453.92"/>
    </edge>
    <edge id=":antrim_4" function="internal">
        <lane id=":antrim_4_0" index="0" speed="8.96" length="30.08" shape="2277.20,3482.68 2278.86,3482.05 2278.22,3477.27 2275.28,3468.34 2270.04,3455.26"/>
    </edge>
    <edge id=":antrim_5" function="internal">
        <lane id=":antrim_5_0" index="0" speed="9.29" length="31.06" shape="2277.20,3482.68 2279.26,3482.06 2279.30,3477.07 2277.33,3467.69 2273.35,3453.92"/>
    </edge>
    <edge id=":antrim_6" function="internal">
        <lane id=":antrim_6_0" index="0" speed="8.93" length="29.99" shape="2277.24,3482.59 2278.87,3481.98 2278.22,3477.22 2275.27,3468.31 2270.04,3455.26"/>
    </edge>
    <edge id=":antrim_7" function="internal">
        <lane id=":antrim_7_0" index="0" speed="9.26" length="30.96" shape="2277.24,3482.59 2279.28,3482.00 2279.31,3477.02 2277.33,3467.66 2273.35,3453.92"/>
    </edge>
    <edge id=":athlone_0" function="internal">
        <lane id=":athlone_0_0" index="0" speed="3.91" length="3.17" shape="1255.20,1965.50 1254.92,1964.64 1254.44,1964.16 1253.77,1964.07 1252.91,1964.36"/>
    </edge>
    <edge id=":belfast_0" function="internal">
        <lane id=":belfast_0_0" index="0" speed="4.19" length="5.21" shape="2499.51,3359.46 2499.91,3361.11 2499.66,3361.99 2498.76,3362.08 2497.20,3361.39"/>
    </edge>
    <edge id=":bray_0" function="internal">
        <lane id=":bray_0_0" index="0" speed="9.23" length="28.45" shape="2424.04,1660.29 2432.03,1661.51 2437.23,1665.44 2438.87,1671.38 2436.20,1678.59"/>
    </edge>
    <edge id=":bray_1" function="internal">
        <lane id=":bray_1_0" index="0" speed="5.65" length="12.71" shape="2424.04,1660.29 2426.24,1661.72 2427.31,1665.11 2427.08,1668.78 2425.36,1671.05"/>
    </edge>
    <edge id=":bray_2" function="internal">
        <lane id=":bray_2_0" index="0" speed="3.65" length="4.67" shape="2424.04,1660.29 2425.27,1661.04 2425.70,1661.82 2425.33,1662.64 2424.17,1663.49"/>
    </edge>
    <edge id=":bray_3" function="internal">
        <lane id=":bray_3_0" index="0" speed="3.11" length="2.61" shape="2425.54,1671.41 2426.36,1670.90 2426.60,1670.66 2426.27,1670.72 2425.36,1671.05"/>
    </edge>
    <edge id=":bray_4" function="internal">
        <lane id=":bray_4_0" index="0" speed="5.46" length="11.01" shape="2425.54,1671.41 2428.67,1669.20 2429.50,1667.67 2428.05,1666.83 2424.30,1666.68"/>
    </edge>
    <edge id=":bray_5" function="internal">
        <lane id=":bray_5_0" index="0" speed="6.18" length="14.95" shape="2425.54,1671.41 2429.09,1671.11 2433.14,1672.84 2436.05,1675.66 2436.20,1678.59"/>
    </edge>
    <edge id=":bray_6" function="internal">
        <lane id=":bray_6_0" index="0" speed="5.74" length="12.93" shape="2440.54,1680.38 2441.14,1675.84 2440.62,1674.03 2438.97,1674.95 2436.20,1678.59"/>
    </edge>
    <edge id=":bray_7" function="internal">
        <lane id=":bray_7_0" index="0" speed="8.76" length="24.85" shape="2440.54,1680.38 2440.84,1673.50 2438.41,1669.65 2433.25,1668.84 2425.36,1671.05"/>
    </edge>
    <edge id=":bray_8" function="internal">
        <lane id=":bray_8_0" index="0" speed="10.00" length="28.54" shape="2440.54,1680.38 2440.83,1672.69 2438.20,1667.31 2432.64,1664.24 2424.17,1663.49"/>
    </edge>
    <edge id=":carlow_0" function="internal">
        <lane id=":carlow_0_0" index="0" speed="10.00" length="12.25" shape="1879.72,1152.83 1881.25,1149.84 1882.36,1147.23 1882.95,1144.53 1882.93,1141.24"/>
    </edge>
    <edge id=":carlow_1" function="internal">
        <lane id=":carlow_1_0" index="0" speed="6.63" length="16.38" shape="1879.72,1152.83 1882.55,1148.43 1884.85,1147.36 1886.60,1149.63 1887.83,1155.24"/>
    </edge>
    <edge id=":carlow_2" function="internal">
        <lane id=":carlow_2_0" index="0" speed="3.61" length="4.48" shape="1879.72,1152.83 1880.94,1152.17 1881.80,1152.19 1882.30,1152.89 1882.44,1154.27"/>
    </edge>
    <edge id=":carlow_3" function="internal">
        <lane id=":carlow_3_0" index="0" speed="10.00" length="12.30" shape="1880.07,1153.01 1881.45,1149.95 1882.45,1147.29 1882.98,1144.54 1882.93,1141.24"/>
    </edge>
    <edge id=":carlow_4" function="internal">
        <lane id=":carlow_4_0" index="0" speed="6.61" length="16.59" shape="1880.07,1153.01 1882.72,1148.36 1884.90,1147.18 1886.60,1149.47 1887.83,1155.24"/>
    </edge>
    <edge id=":carlow_5" function="internal">
        <lane id=":carlow_5_0" index="0" speed="9.49" length="43.91" shape="1880.07,1153.01 1873.43,1168.08 1871.61,1173.31 1874.61,1168.70 1882.44,1154.27"/>
    </edge>
    <edge id=":carrick_0" function="internal">
        <lane id=":carrick_0_0" index="0" speed="8.07" length="14.12" shape="1133.53,2570.19 1131.47,2574.81 1130.67,2578.50 1131.14,2581.24 1132.88,2583.05"/>
    </edge>
    <edge id=":carrick_1" function="internal">
        <lane id=":carrick_1_0" index="0" speed="9.83" length="15.51" shape="1129.21,2568.82 1128.89,2573.95 1129.39,2578.04 1130.72,2581.07 1132.88,2583.05"/>
    </edge>
    <edge id=":castlebar_0" function="internal">
        <lane id=":castlebar_0_0" index="0" speed="5.93" length="12.64" shape="314.08,2445.68 310.87,2446.58 310.14,2448.04 311.90,2450.07 316.15,2452.67"/>
    </edge>
    <edge id=":castlebar_1" function="internal">
        <lane id=":castlebar_1_0" index="0" speed="7.37" length="18.34" shape="314.08,2445.68 310.34,2447.03 309.53,2449.64 311.66,2453.52 316.71,2458.66"/>
    </edge>
    <edge id=":castlebar_2" function="internal">
        <lane id=":castlebar_2_0" index="0" speed="8.09" length="20.28" shape="314.08,2445.68 309.89,2447.24 308.45,2450.36 309.76,2455.07 313.83,2461.35"/>
    </edge>
    <edge id=":castlebar_3" function="internal">
        <lane id=":castlebar_3_0" index="0" speed="7.83" length="21.68" shape="314.08,2445.68 308.90,2444.73 306.75,2440.87 307.34,2435.41 310.36,2429.65"/>
    </edge>
    <edge id=":castlebar_4" function="internal">
        <lane id=":castlebar_4_0" index="0" speed="8.03" length="21.02" shape="319.04,2438.13 313.03,2442.00 310.54,2445.71 311.58,2449.27 316.15,2452.67"/>
    </edge>
    <edge id=":castlebar_5" function="internal">
        <lane id=":castlebar_5_0" index="0" speed="9.51" length="26.38" shape="319.04,2438.13 312.81,2442.50 310.35,2447.38 311.65,2452.76 316.71,2458.66"/>
    </edge>
    <edge id=":castlebar_6" function="internal">
        <lane id=":castlebar_6_0" index="0" speed="10.00" length="28.47" shape="319.04,2438.13 312.49,2442.74 309.44,2448.15 309.88,2454.35 313.83,2461.35"/>
    </edge>
    <edge id=":castlebar_7" function="internal">
        <lane id=":castlebar_7_0" index="0" speed="6.49" length="16.61" shape="319.04,2438.13 314.57,2438.85 310.92,2437.05 309.15,2433.67 310.36,2429.65"/>
    </edge>
    <edge id=":castlebar_8" function="internal">
        <lane id=":castlebar_8_0" index="0" speed="8.78" length="22.91" shape="316.65,2434.99 311.48,2440.13 309.67,2444.78 311.23,2448.97 316.15,2452.67"/>
    </edge>
    <edge id=":castlebar_9" function="internal">
        <lane id=":castlebar_9_0" index="0" speed="10.00" length="28.27" shape="316.65,2434.99 311.35,2440.63 309.59,2446.45 311.38,2452.46 316.71,2458.66"/>
    </edge>
    <edge id=":castlebar_10" function="internal">
        <lane id=":castlebar_10_0" index="0" speed="10.00" length="30.17" shape="316.65,2434.99 311.07,2440.87 308.74,2447.23 309.66,2454.05 313.83,2461.35"/>
    </edge>
    <edge id=":castlebar_11" function="internal">
        <lane id=":castlebar_11_0" index="0" speed="5.45" length="12.06" shape="316.65,2434.99 313.08,2436.02 310.83,2435.47 309.93,2433.35 310.36,2429.65"/>
    </edge>
    <edge id=":cavan_0" function="internal">
        <lane id=":cavan_0_0" index="0" speed="3.91" length="2.39" shape="1683.41,2629.84 1683.56,2629.21 1683.88,2628.76 1684.36,2628.49 1685.00,2628.40"/>
    </edge>
    <edge id=":clonmel_0" function="internal">
        <lane id=":clonmel_0_0" index="0" speed="7.39" length="22.31" shape="1393.24,641.69 1389.82,631.76 1387.17,626.27 1385.29,625.20 1384.17,628.57"/>
    </edge>
    <edge id=":clonmel_1" function="internal">
        <lane id=":clonmel_1_0" index="0" speed="7.86" length="24.38" shape="1396.65,640.41 1391.82,630.47 1388.13,625.18 1385.58,624.55 1384.17,628.57"/>
    </edge>
    <edge id=":cork_0" function="internal">
        <lane id=":cork_0_0" index="0" speed="9.98" length="41.59" shape="813.66,12.69 815.87,7.36 821.71,12.46 829.24,23.56 836.54,36.26"/>
    </edge>
    <edge id=":cork_1" function="internal">
        <lane id=":cork_1_0" index="0" speed="5.07" length="10.78" shape="829.99,39.66 830.35,36.35 831.56,34.69 833.63,34.66 836.54,36.26"/>
    </edge>
    <edge id=":cork_2" function="internal">
        <lane id=":cork_2_0" index="0" speed="7.20" length="23.41" shape="839.78,34.17 834.23,27.49 831.84,25.61 832.61,28.54 836.54,36.26"/>
    </edge>
    <edge id=":craigavon_0" function="internal">
        <lane id=":craigavon_0_0" index="0" speed="10.00" length="23.52" shape="2152.67,3163.38 2132.73,3150.90"/>
    </edge>
    <edge id=":craigavon_1" function="internal">
        <lane id=":craigavon_1_0" index="0" speed="8.49" length="12.10" shape="2152.67,3163.38 2151.20,3161.60 2150.19,3158.65 2149.74,3155.22 2149.95,3152.02"/>
    </edge>
    <edge id=":craigavon_2" function="internal">
        <lane id=":craigavon_2_0" index="0" speed="3.04" length="2.26" shape="2150.63,3151.99 2150.49,3151.20 2150.33,3150.94 2150.15,3151.21 2149.95,3152.02"/>
    </edge>
    <edge id=":craigavon_3" function="internal">
        <lane id=":craigavon_3_0" index="0" speed="7.71" length="19.99" shape="2150.63,3151.99 2148.83,3154.63 2143.83,3154.74 2137.75,3153.21 2132.73,3150.90"/>
    </edge>
    <edge id=":craigavon_4" function="internal">
        <lane id=":craigavon_4_0" index="0" speed="2.95" length="1.99" shape="2150.56,3151.99 2150.43,3151.30 2150.28,3151.07 2150.12,3151.31 2149.95,3152.02"/>
    </edge>
    <edge id=":craigavon_5" function="internal">
        <lane id=":craigavon_5_0" index="0" speed="7.68" length="19.94" shape="2150.56,3151.99 2148.79,3154.63 2143.81,3154.74 2137.74,3153.21 2132.73,3150.90"/>
    </edge>
    <edge id=":craigavon_6" function="internal">
        <lane id=":craigavon_6_0" index="0" speed="8.08" length="18.04" shape="2133.91,3149.06 2140.52,3152.42 2145.39,3154.03 2148.54,3153.90 2149.95,3152.02"/>
    </edge>
    <edge id=":craigavon_7" function="internal">
        <lane id=":craigavon_7_0" index="0" speed="9.23" length="41.55" shape="2133.91,3149.06 2120.28,3141.52 2115.55,3139.31 2119.70,3142.43 2132.73,3150.90"/>
    </edge>
    <edge id=":craigavon_8" function="internal">
        <lane id=":craigavon_8_0" index="0" speed="5.71" length="12.66" shape="2131.04,3155.34 2135.49,3155.76 2137.26,3155.16 2136.34,3153.54 2132.73,3150.90"/>
    </edge>
    <edge id=":craigavon_9" function="internal">
        <lane id=":craigavon_9_0" index="0" speed="9.66" length="20.57" shape="2131.04,3155.34 2138.86,3156.20 2144.61,3155.93 2148.31,3154.53 2149.95,3152.02"/>
    </edge>
    <edge id=":craigavon_10" function="internal">
        <lane id=":craigavon_10_0" index="0" speed="8.03" length="17.88" shape="2143.20,3163.41 2144.07,3161.41 2142.61,3158.65 2138.84,3155.15 2132.73,3150.90"/>
    </edge>
    <edge id=":craigavon_11" function="internal">
        <lane id=":craigavon_11_0" index="0" speed="10.00" length="13.54" shape="2143.20,3163.41 2145.76,3161.00 2147.67,3158.38 2149.03,3155.43 2149.95,3152.02"/>
    </edge>
    <edge id=":derry_0" function="internal">
        <lane id=":derry_0_0" index="0" speed="4.70" length="8.47" shape="1613.14,3860.11 1613.18,3863.20 1613.54,3864.28 1614.19,3863.35 1615.16,3860.41"/>
    </edge>
    <edge id=":derry_1" function="internal">
        <lane id=":derry_1_0" index="0" speed="5.10" length="10.52" shape="1613.14,3860.11 1612.03,3862.57 1609.64,3863.59 1607.13,3863.07 1605.65,3860.86"/>
    </edge>
    <edge id=":derry_2" function="internal">
        <lane id=":derry_2_0" index="0" speed="6.16" length="14.91" shape="1609.22,3860.21 1610.42,3865.26 1611.80,3866.98 1613.38,3865.36 1615.16,3860.41"/>
    </edge>
    <edge id=":dublin_0" function="internal">
        <lane id=":dublin_0_0" index="0" speed="10.00" length="27.01" shape="2323.15,1810.74 2322.01,1814.41 2318.08,1818.04 2311.34,1821.62 2301.79,1825.16"/>
    </edge>
    <edge id=":dublin_1" function="internal">
        <lane id=":dublin_1_0" index="0" speed="8.13" length="19.08" shape="2323.15,1810.74 2322.40,1814.13 2319.54,1815.79 2314.57,1815.70 2307.48,1813.87"/>
    </edge>
    <edge id=":dublin_2" function="internal">
        <lane id=":dublin_2_0" index="0" speed="7.38" length="18.24" shape="2323.15,1810.74 2322.55,1814.27 2320.07,1815.33 2315.71,1813.89 2309.46,1809.98"/>
    </edge>
    <edge id=":dublin_3" function="internal">
        <lane id=":dublin_3_0" index="0" speed="5.85" length="13.67" shape="2303.93,1829.19 2307.59,1825.95 2308.45,1824.20 2306.52,1823.94 2301.79,1825.16"/>
    </edge>
    <edge id=":dublin_4" function="internal">
        <lane id=":dublin_4_0" index="0" speed="8.06" length="20.86" shape="2303.93,1829.19 2309.68,1823.88 2312.19,1819.56 2311.46,1816.22 2307.48,1813.87"/>
    </edge>
    <edge id=":dublin_5" function="internal">
        <lane id=":dublin_5_0" index="0" speed="9.33" length="23.92" shape="2303.93,1829.19 2310.06,1823.44 2313.02,1818.32 2312.82,1813.84 2309.46,1809.98"/>
    </edge>
    <edge id=":dundalk_0" function="internal">
        <lane id=":dundalk_0_0" index="0" speed="7.21" length="18.56" shape="2244.01,2613.45 2243.78,2618.87 2241.64,2622.96 2238.14,2624.68 2233.83,2623.04"/>
    </edge>
    <edge id=":dundalk_1" function="internal">
        <lane id=":dundalk_1_0" index="0" speed="10.00" length="41.94" shape="2229.31,2590.41 2234.92,2604.02 2239.11,2616.86 2239.53,2624.64 2233.83,2623.04"/>
    </edge>
    <edge id=":dundalk_2" function="internal">
        <lane id=":dundalk_2_0" index="0" speed="9.87" length="42.04" shape="2226.14,2591.96 2232.85,2604.96 2238.30,2617.50 2239.59,2625.04 2233.83,2623.04"/>
    </edge>
    <edge id=":dundalk_3" function="internal">
        <lane id=":dundalk_3_0" index="0" speed="5.46" length="10.15" shape="2231.94,2628.40 2235.25,2628.07 2236.68,2627.06 2236.20,2625.39 2233.83,2623.04"/>
    </edge>
    <edge id=":ennis_0" function="internal">
        <lane id=":ennis_0_0" index="0" speed="3.84" length="5.36" shape="488.09,1224.84 488.23,1223.19 488.81,1222.35 489.83,1222.30 491.30,1223.06"/>
    </edge>
    <edge id=":ennis_1" function="internal">
        <lane id=":ennis_1_0" index="0" speed="5.76" length="13.08" shape="494.87,1220.06 491.09,1217.37 489.23,1216.98 489.30,1218.87 491.30,1223.06"/>
    </edge>
    <edge id=":ennis_2" function="internal">
        <lane id=":ennis_2_0" index="0" speed="6.74" length="15.95" shape="491.40,1211.47 488.39,1211.19 487.37,1213.04 488.34,1216.99 491.30,1223.06"/>
    </edge>
    <edge id=":ennis_3" function="internal">
        <lane id=":ennis_3_0" index="0" speed="9.62" length="20.75" shape="486.75,1203.98 485.32,1206.15 485.60,1210.06 487.59,1215.70 491.30,1223.06"/>
    </edge>
    <edge id=":enniskillen_0" function="internal">
        <lane id=":enniskillen_0_0" index="0" speed="10.00" length="32.52" shape="1469.45,3032.97 1464.33,3045.50 1461.33,3054.79 1460.48,3060.85 1461.75,3063.67"/>
    </edge>
    <edge id=":enniskillen_1" function="internal">
        <lane id=":enniskillen_1_0" index="0" speed="9.96" length="34.22" shape="1469.45,3032.97 1464.20,3044.09 1458.78,3053.10 1453.77,3057.64 1449.72,3055.39"/>
    </edge>
    <edge id=":enniskillen_2" function="internal">
        <lane id=":enniskillen_2_0" index="0" speed="10.00" length="33.06" shape="1466.06,3031.70 1462.37,3044.76 1460.42,3054.44 1460.21,3060.74 1461.75,3063.67"/>
    </edge>
    <edge id=":enniskillen_3" function="internal">
        <lane id=":enniskillen_3_0" index="0" speed="9.62" length="33.56" shape="1466.06,3031.70 1462.18,3043.11 1457.89,3052.64 1453.60,3057.62 1449.72,3055.39"/>
    </edge>
    <edge id=":enniskillen_4" function="internal">
        <lane id=":enniskillen_4_0" index="0" speed="10.00" length="13.61" shape="1452.76,3053.79 1454.47,3056.90 1456.41,3059.56 1458.78,3061.79 1461.75,3063.67"/>
    </edge>
    <edge id=":enniskillen_5" function="internal">
        <lane id=":enniskillen_5_0" index="0" speed="3.75" length="5.02" shape="1452.76,3053.79 1452.60,3055.33 1452.04,3056.11 1451.08,3056.13 1449.72,3055.39"/>
    </edge>
    <edge id=":galway_0" function="internal">
        <lane id=":galway_0_0" index="0" speed="3.65" length="4.67" shape="471.06,1742.60 469.83,1741.85 469.40,1741.06 469.77,1740.25 470.94,1739.40"/>
    </edge>
    <edge id=":kilkenny_0" function="internal">
        <lane id=":kilkenny_0_0" index="0" speed="7.27" length="19.51" shape="1680.37,963.34 1681.78,957.46 1684.05,955.37 1687.20,957.06 1691.22,962.55"/>
    </edge>
    <edge id=":kilkenny_1" function="internal">
        <lane id=":kilkenny_1_0" index="0" speed="3.94" length="5.62" shape="1683.58,963.43 1684.59,962.02 1685.56,961.56 1686.51,962.07 1687.43,963.54"/>
    </edge>
    <edge id=":letterkenny_0" function="internal">
        <lane id=":letterkenny_0_0" index="0" speed="5.81" length="13.41" shape="1357.98,3788.50 1355.84,3792.77 1355.71,3794.69 1357.59,3794.27 1361.48,3791.51"/>
    </edge>
    <edge id=":letterkenny_1" function="internal">
        <lane id=":letterkenny_1_0" index="0" speed="8.48" length="21.80" shape="1344.48,3791.06 1346.50,3795.61 1350.01,3797.20 1355.00,3795.83 1361.48,3791.51"/>
    </edge>
    <edge id=":letterkenny_2" function="internal">
        <lane id=":letterkenny_2_0" index="0" speed="10.00" length="32.82" shape="1335.14,3783.05 1341.04,3791.27 1347.40,3795.42 1354.21,3795.50 1361.48,3791.51"/>
    </edge>
    <edge id=":letterkenny_3" function="internal">
        <lane id=":letterkenny_3_0" index="0" speed="10.00" length="34.51" shape="1331.97,3785.13 1339.18,3792.50 1346.50,3796.02 1353.93,3795.69 1361.48,3791.51"/>
    </edge>
    <edge id=":limerick_0" function="internal">
        <lane id=":limerick_0_0" index="0" speed="7.04" length="11.44" shape="744.73,960.97 744.47,958.61 745.52,956.59 747.88,954.92 751.55,953.60"/>
    </edge>
    <edge id=":limerick_1" function="internal">
        <lane id=":limerick_1_0" index="0" speed="6.63" length="19.70" shape="744.73,960.97 747.38,967.85 748.70,970.05 748.69,967.57 747.36,960.42"/>
    </edge>
    <edge id=":longford_0" function="internal">
        <lane id=":longford_0_0" index="0" speed="5.58" length="11.66" shape="1363.95,2330.65 1361.29,2327.61 1359.64,2326.92 1358.99,2328.59 1359.34,2332.61"/>
    </edge>
    <edge id=":longford_1" function="internal">
        <lane id=":longford_1_0" index="0" speed="10.00" length="26.07" shape="1363.95,2330.65 1359.50,2323.73 1356.94,2317.41 1356.28,2311.69 1357.52,2306.57"/>
    </edge>
    <edge id=":longford_2" function="internal">
        <lane id=":longford_2_0" index="0" speed="9.77" length="23.35" shape="1363.95,2330.65 1359.56,2323.71 1357.70,2317.98 1358.36,2313.48 1361.54,2310.21"/>
    </edge>
    <edge id=":longford_3" function="internal">
        <lane id=":longford_3_0" index="0" speed="4.13" length="6.13" shape="1362.19,2311.36 1363.80,2309.72 1364.23,2308.98 1363.47,2309.14 1361.54,2310.21"/>
    </edge>
    <edge id=":longford_4" function="internal">
        <lane id=":longford_4_0" index="0" speed="10.00" length="22.14" shape="1362.19,2311.36 1359.96,2314.64 1358.74,2319.28 1358.53,2325.27 1359.34,2332.61"/>
    </edge>
    <edge id=":longford_5" function="internal">
        <lane id=":longford_5_0" index="0" speed="6.72" length="18.48" shape="1362.19,2311.36 1357.39,2315.36 1355.00,2315.90 1355.05,2312.96 1357.52,2306.57"/>
    </edge>
    <edge id=":monaghan_0" function="internal">
        <lane id=":monaghan_0_0" index="0" speed="6.45" length="9.15" shape="1841.33,2965.29 1839.06,2964.27 1837.02,2964.26 1835.21,2965.27 1833.64,2967.28"/>
    </edge>
    <edge id=":monaghan_1" function="internal">
        <lane id=":monaghan_1_0" index="0" speed="10.00" length="11.84" shape="1841.33,2965.29 1838.56,2963.54 1836.37,2962.02 1834.40,2960.24 1832.32,2957.75"/>
    </edge>
    <edge id=":monaghan_2" function="internal">
        <lane id=":monaghan_2_0" index="0" speed="10.00" length="32.38" shape="1845.24,2937.06 1843.12,2943.18 1839.79,2952.33 1836.29,2961.40 1833.64,2967.28"/>
    </edge>
    <edge id=":monaghan_3" function="internal">
        <lane id=":monaghan_3_0" index="0" speed="8.98" length="26.63" shape="1845.24,2937.06 1841.93,2946.39 1838.52,2954.01 1835.23,2958.32 1832.32,2957.75"/>
    </edge>
    <edge id=":monaghan_4" function="internal">
        <lane id=":monaghan_4_0" index="0" speed="10.00" length="32.15" shape="1841.54,2936.16 1840.31,2942.49 1838.22,2951.94 1835.81,2961.28 1833.64,2967.28"/>
    </edge>
    <edge id=":monaghan_5" function="internal">
        <lane id=":monaghan_5_0" index="0" speed="8.58" length="26.14" shape="1841.54,2936.16 1839.75,2945.69 1837.59,2953.72 1835.10,2958.37 1832.32,2957.75"/>
    </edge>
    <edge id=":naas_0" function="internal">
        <lane id=":naas_0_0" index="0" speed="10.00" length="10.00" shape="2086.65,1617.98 2087.96,1620.58 2088.40,1622.55 2088.51,1624.64 2088.82,1627.60"/>
    </edge>
    <edge id=":naas_1" function="internal">
        <lane id=":naas_1_0" index="0" speed="10.00" length="10.01" shape="2086.65,1617.98 2087.93,1620.58 2088.30,1622.57 2088.29,1624.68 2088.43,1627.66"/>
    </edge>
    <edge id=":naas_2" function="internal">
        <lane id=":naas_2_0" index="0" speed="10.00" length="12.20" shape="2086.65,1617.98 2086.89,1619.42 2086.45,1621.83 2085.34,1625.22 2083.55,1629.59"/>
    </edge>
    <edge id=":naas_3" function="internal">
        <lane id=":naas_3_0" index="0" speed="7.97" length="11.73" shape="2086.65,1617.98 2086.78,1619.43 2085.80,1621.49 2083.71,1624.17 2080.50,1627.45"/>
    </edge>
    <edge id=":naas_4" function="internal">
        <lane id=":naas_4_0" index="0" speed="3.77" length="4.90" shape="2086.65,1617.98 2086.77,1619.49 2086.36,1620.34 2085.44,1620.53 2084.01,1620.05"/>
    </edge>
    <edge id=":navan_0" function="internal">
        <lane id=":navan_0_0" index="0" speed="10.00" length="12.33" shape="2090.44,2197.22 2089.45,2199.47 2089.15,2202.20 2089.53,2205.43 2090.60,2209.15"/>
    </edge>
    <edge id=":navan_1" function="internal">
        <lane id=":navan_1_0" index="0" speed="10.00" length="14.11" shape="2090.44,2197.22 2088.59,2200.32 2087.12,2203.42 2085.87,2206.64 2084.70,2210.07"/>
    </edge>
    <edge id=":navan_2" function="internal">
        <lane id=":navan_2_0" index="0" speed="10.00" length="15.01" shape="2090.44,2197.22 2088.31,2199.61 2085.43,2201.50 2081.79,2202.89 2077.41,2203.79"/>
    </edge>
    <edge id=":navan_3" function="internal">
        <lane id=":navan_3_0" index="0" speed="5.52" length="8.89" shape="2090.44,2197.22 2088.74,2198.47 2086.35,2198.91 2084.03,2198.48 2082.55,2197.15"/>
    </edge>
    <edge id=":navan_4" function="internal">
        <lane id=":navan_4_0" index="0" speed="5.81" length="9.19" shape="2082.02,2209.19 2082.40,2206.50 2081.76,2204.70 2080.09,2203.80 2077.41,2203.79"/>
    </edge>
    <edge id=":navan_5" function="internal">
        <lane id=":navan_5_0" index="0" speed="10.00" length="12.38" shape="2082.02,2209.19 2082.96,2205.92 2083.55,2203.08 2083.51,2200.28 2082.55,2197.15"/>
    </edge>
    <edge id=":navan_6" function="internal">
        <lane id=":navan_6_0" index="0" speed="5.34" length="9.91" shape="2082.02,2209.19 2083.56,2207.64 2086.24,2207.13 2088.96,2207.63 2090.60,2209.15"/>
    </edge>
    <edge id=":navan_7" function="internal">
        <lane id=":navan_7_0" index="0" speed="3.52" length="4.11" shape="2082.02,2209.19 2083.02,2208.40 2083.80,2208.29 2084.36,2208.84 2084.70,2210.07"/>
    </edge>
    <edge id=":omagh_0" function="internal">
        <lane id=":omagh_0_0" index="0" speed="8.36" length="29.72" shape="1612.81,3329.06 1611.87,3339.20 1609.95,3348.49 1607.32,3353.25 1604.27,3349.79"/>
    </edge>
    <edge id=":omagh_1" function="internal">
        <lane id=":omagh_1_0" index="0" speed="6.27" length="17.89" shape="1612.81,3329.06 1613.00,3322.41 1612.86,3320.22 1612.42,3322.47 1611.66,3329.17"/>
    </edge>
    <edge id=":omagh_2" function="internal">
        <lane id=":omagh_2_0" index="0" speed="4.25" length="7.02" shape="1612.81,3329.06 1611.57,3330.83 1610.36,3331.41 1609.17,3330.78 1608.01,3328.95"/>
    </edge>
    <edge id=":omagh_3" function="internal">
        <lane id=":omagh_3_0" index="0" speed="5.46" length="9.96" shape="1599.84,3353.57 1602.82,3354.82 1604.56,3354.61 1605.04,3352.94 1604.27,3349.79"/>
    </edge>
    <edge id=":omagh_4" function="internal">
        <lane id=":omagh_4_0" index="0" speed="9.65" length="29.46" shape="1599.84,3353.57 1603.55,3353.79 1606.15,3349.76 1607.63,3341.48 1608.01,3328.95"/>
    </edge>
    <edge id=":omagh_5" function="internal">
        <lane id=":omagh_5_0" index="0" speed="10.00" length="30.49" shape="1599.84,3353.57 1603.88,3353.87 1607.20,3349.90 1609.79,3341.67 1611.66,3329.17"/>
    </edge>
    <edge id=":portlaoise_0" function="internal">
        <lane id=":portlaoise_0_0" index="0" speed="5.52" length="11.11" shape="1697.83,1371.45 1694.57,1369.50 1692.82,1369.40 1692.56,1371.14 1693.79,1374.73"/>
    </edge>
    <edge id=":portlaoise_1" function="internal">
        <lane id=":portlaoise_1_0" index="0" speed="6.70" length="13.94" shape="1697.83,1371.45 1693.29,1368.68 1690.00,1367.79 1687.97,1368.77 1687.20,1371.63"/>
    </edge>
    <edge id=":portlaoise_2" function="internal">
        <lane id=":portlaoise_2_0" index="0" speed="9.99" length="17.78" shape="1697.83,1371.45 1692.40,1367.96 1687.90,1365.96 1684.34,1365.44 1681.70,1366.39"/>
    </edge>
    <edge id=":roscommon_0" function="internal">
        <lane id=":roscommon_0_0" index="0" speed="10.00" length="46.24" shape="1091.85,2212.98 1072.94,2219.43 1059.79,2224.78 1052.42,2229.04 1050.82,2232.21"/>
    </edge>
    <edge id=":roscommon_1" function="internal">
        <lane id=":roscommon_1_0" index="0" speed="10.00" length="48.01" shape="1091.85,2212.98 1074.81,2218.01 1059.96,2221.13 1050.27,2220.85 1048.69,2215.72"/>
    </edge>
    <edge id=":roscommon_2" function="internal">
        <lane id=":roscommon_2_0" index="0" speed="10.00" length="46.69" shape="1090.67,2209.70 1072.25,2217.53 1059.47,2223.90 1052.33,2228.79 1050.82,2232.21"/>
    </edge>
    <edge id=":roscommon_3" function="internal">
        <lane id=":roscommon_3_0" index="0" speed="10.00" length="47.41" shape="1090.67,2209.70 1074.22,2215.91 1059.71,2220.15 1050.17,2220.67 1048.69,2215.72"/>
    </edge>
    <edge id=":roscommon_4" function="internal">
        <lane id=":roscommon_4_0" index="0" speed="5.55" length="9.43" shape="1042.30,2216.03 1044.02,2218.39 1045.66,2219.13 1047.22,2218.23 1048.69,2215.72"/>
    </edge>
    <edge id=":roscommon_5" function="internal">
        <lane id=":roscommon_5_0" index="0" speed="10.00" length="18.29" shape="1042.30,2216.03 1050.82,2232.21"/>
    </edge>
    <edge id=":sligo_0" function="internal">
        <lane id=":sligo_0_0" index="0" speed="10.00" length="0.47" shape="874.05,2945.71 874.11,2945.86 874.16,2945.91 874.18,2945.85 874.19,2945.68"/>
    </edge>
    <edge id=":sligo_1" function="internal">
        <lane id=":sligo_1_0" index="0" speed="6.29" length="10.47" shape="874.05,2945.71 875.54,2948.82 877.29,2950.50 879.30,2950.75 881.57,2949.57"/>
    </edge>
    <edge id=":sligo_2" function="internal">
        <lane id=":sligo_2_0" index="0" speed="10.00" length="19.86" shape="874.05,2945.71 876.19,2949.71 879.49,2952.85 883.94,2955.13 889.53,2956.55"/>
    </edge>
    <edge id=":sligo_3" function="internal">
        <lane id=":sligo_3_0" index="0" speed="10.00" length="20.85" shape="874.05,2945.71 876.33,2949.72 880.04,2954.13 884.26,2958.11 888.06,2960.83"/>
    </edge>
    <edge id=":sligo_4" function="internal">
        <lane id=":sligo_4_0" index="0" speed="10.00" length="19.13" shape="874.05,2945.71 875.62,2949.81 877.64,2954.57 879.80,2959.27 881.80,2963.18"/>
    </edge>
    <edge id=":sligo_5" function="internal">