<?xml version="1.0" encoding="UTF-8"?>

<!-- generated on 2024-09-30 18:12:36 by Eclipse SUMO netconvert Version 1.19.0
<configuration xmlns:xsi="http://www.w3.org/2001/XMLSchema-instance" xsi:noNamespaceSchemaLocation="http://sumo.dlr.de/xsd/netconvertConfiguration.xsd">

    <input>
        <node-files value="nod.xml"/>
        <edge-files value="edge_xmls/00006.xml"/>
    </input>

    <output>
        <output-file value="networks/00006.net.xml"/>
    </output>

</configuration>
-->

<net version="1.16" junctionCornerDetail="5" limitTurnSpeed="5.50" xmlns:xsi="http://www.w3.org/2001/XMLSchema-instance" xsi:noNamespaceSchemaLocation="http://sumo.dlr.de/xsd/net_file.xsd">

    <location netOffset="-682.00,4368.00" convBoundary="0.00,0.00,2498.00,3881.00" origBoundary="682.00,-4368.00,3180.00,-487.00" projParameter="!"/>

    <edge id=":antrim_0" function="internal">
        <lane id=":antrim_0_0" index="0" speed="6.68" length="19.48" shape="2279.73,3455.59 2281.62,3462.50 2282.93,3464.72 2283.64,3462.25 2283.75,3455.08"/>
    </edge>
    <edge id=":antrim_1" function="internal">
        <lane id=":antrim_1_0" index="0" speed="7.66" length="25.27" shape="2279.73,3455.59 2282.28,3464.33 2284.41,3467.15 2286.10,3464.05 2287.37,3455.04"/>
    </edge>
    <edge id=":antrim_2" function="internal">
        <lane id=":antrim_2_0" index="0" speed="8.84" length="33.02" shape="2279.73,3455.59 2281.91,3466.73 2282.97,3477.24 2281.84,3483.15 2277.50,3480.47"/>
    </edge>
    <edge id=":antrim_3" function="internal">
        <lane id=":antrim_3_0" index="0" speed="8.14" length="25.75" shape="2280.43,3478.25 2282.09,3478.88 2283.20,3475.22 2283.75,3467.29 2283.75,3455.08"/>
    </edge>
    <edge id=":antrim_4" function="internal">
        <lane id=":antrim_4_0" index="0" speed="8.52" length="27.04" shape="2280.43,3478.25 2282.50,3479.13 2284.34,3475.56 2285.97,3467.53 2287.37,3455.04"/>
    </edge>
    <edge id=":antrim_5" function="internal">
        <lane id=":antrim_5_0" index="0" speed="3.81" length="5.20" shape="2280.43,3478.25 2280.64,3479.53 2279.87,3480.60 2278.65,3481.05 2277.50,3480.47"/>
    </edge>
    <edge id=":antrim_6" function="internal">
        <lane id=":antrim_6_0" index="0" speed="8.35" length="26.49" shape="2279.86,3478.69 2281.77,3479.31 2283.06,3475.59 2283.72,3467.51 2283.75,3455.08"/>
    </edge>
    <edge id=":antrim_7" function="internal">
        <lane id=":antrim_7_0" index="0" speed="8.73" length="27.73" shape="2279.86,3478.69 2282.16,3479.52 2284.18,3475.86 2285.92,3467.70 2287.37,3455.04"/>
    </edge>
    <edge id=":antrim_8" function="internal">
        <lane id=":antrim_8_0" index="0" speed="3.57" length="4.32" shape="2279.86,3478.69 2279.94,3480.02 2279.57,3480.76 2278.76,3480.91 2277.50,3480.47"/>
    </edge>
    <edge id=":athlone_0" function="internal">
        <lane id=":athlone_0_0" index="0" speed="5.71" length="12.71" shape="1271.30,1973.28 1267.43,1971.01 1265.57,1970.81 1265.73,1972.67 1267.90,1976.60"/>
    </edge>
    <edge id=":athlone_1" function="internal">
        <lane id=":athlone_1_0" index="0" speed="6.61" length="15.52" shape="1271.30,1973.28 1265.96,1970.16 1262.53,1969.32 1261.02,1970.75 1261.41,1974.45"/>
    </edge>
    <edge id=":athlone_2" function="internal">
        <lane id=":athlone_2_0" index="0" speed="8.07" length="18.72" shape="1271.30,1973.28 1264.98,1969.55 1260.23,1967.97 1257.07,1968.55 1255.48,1971.28"/>
    </edge>
    <edge id=":athlone_3" function="internal">
        <lane id=":athlone_3_0" index="0" speed="10.00" length="35.70" shape="1271.30,1973.28 1264.26,1966.94 1260.43,1959.62 1259.80,1951.32 1262.38,1942.03"/>
    </edge>
    <edge id=":athlone_4" function="internal">
        <lane id=":athlone_4_0" index="0" speed="10.00" length="31.22" shape="1271.30,1973.28 1264.29,1967.17 1260.86,1960.77 1261.01,1954.06 1264.75,1947.04"/>
    </edge>
    <edge id=":belfast_0" function="internal">
        <lane id=":belfast_0_0" index="0" speed="4.86" length="9.16" shape="2496.72,3356.08 2494.42,3353.65 2493.34,3353.04 2493.49,3354.27 2494.87,3357.32"/>
    </edge>
    <edge id=":belfast_1" function="internal">
        <lane id=":belfast_1_0" index="0" speed="8.73" length="33.56" shape="2496.72,3356.08 2497.78,3359.27 2491.67,3357.10 2481.64,3351.79 2470.96,3345.53"/>
    </edge>
    <edge id=":belfast_2" function="internal">
        <lane id=":belfast_2_0" index="0" speed="9.31" length="40.16" shape="2496.72,3356.08 2485.62,3361.61 2477.95,3361.17 2473.69,3354.76 2472.86,3342.40"/>
    </edge>
    <edge id=":belfast_3" function="internal">
        <lane id=":belfast_3_0" index="0" speed="6.71" length="19.30" shape="2468.99,3350.05 2475.83,3351.69 2478.44,3351.48 2476.82,3349.43 2470.96,3345.53"/>
    </edge>
    <edge id=":belfast_4" function="internal">
        <lane id=":belfast_4_0" index="0" speed="7.57" length="24.03" shape="2468.99,3350.05 2477.32,3351.88 2480.73,3351.21 2479.25,3348.05 2472.86,3342.40"/>
    </edge>
    <edge id=":belfast_5" function="internal">
        <lane id=":belfast_5_0" index="0" speed="8.75" length="26.89" shape="2468.99,3350.05 2473.51,3351.43 2482.46,3354.12 2491.15,3356.60 2494.87,3357.32"/>
    </edge>
    <edge id=":bray_0" function="internal">
        <lane id=":bray_0_0" index="0" speed="7.71" length="19.54" shape="2446.80,1656.77 2445.86,1659.56 2442.04,1659.67 2436.43,1657.93 2430.12,1655.15"/>
    </edge>
    <edge id=":bray_1" function="internal">
        <lane id=":bray_1_0" index="0" speed="5.57" length="11.56" shape="2429.10,1660.08 2433.07,1659.62 2434.57,1658.64 2433.58,1657.15 2430.12,1655.15"/>
    </edge>
    <edge id=":bray_2" function="internal">
        <lane id=":bray_2_0" index="0" speed="10.00" length="17.60" shape="2444.02,1665.25 2443.26,1663.39 2440.69,1661.08 2436.31,1658.34 2430.12,1655.15"/>
    </edge>
    <edge id=":carlow_0" function="internal">
        <lane id=":carlow_0_0" index="0" speed="5.76" length="13.01" shape="1894.71,1163.84 1891.95,1160.14 1890.31,1159.20 1889.78,1161.01 1890.36,1165.59"/>
    </edge>
    <edge id=":carlow_1" function="internal">
        <lane id=":carlow_1_0" index="0" speed="7.64" length="17.59" shape="1894.71,1163.84 1890.35,1157.67 1886.88,1153.91 1884.29,1152.55 1882.60,1153.60"/>
    </edge>
    <edge id=":carlow_2" function="internal">
        <lane id=":carlow_2_0" index="0" speed="8.24" length="23.46" shape="1878.80,1151.42 1882.83,1148.99 1886.09,1151.88 1888.58,1158.08 1890.36,1165.59"/>
    </edge>
    <edge id=":carlow_3" function="internal">
        <lane id=":carlow_3_0" index="0" speed="4.16" length="6.40" shape="1878.80,1151.42 1880.56,1150.54 1881.78,1150.61 1882.46,1151.63 1882.60,1153.60"/>
    </edge>
    <edge id=":carrick_0" function="internal">
        <lane id=":carrick_0_0" index="0" speed="10.00" length="27.98" shape="1138.13,2558.41 1133.80,2568.48 1131.10,2576.25 1130.03,2581.72 1130.60,2584.89"/>
    </edge>
    <edge id=":carrick_1" function="internal">
        <lane id=":carrick_1_0" index="0" speed="9.02" length="27.39" shape="1138.13,2558.41 1133.66,2567.60 1129.30,2575.07 1125.49,2579.15 1122.70,2578.23"/>
    </edge>
    <edge id=":carrick_2" function="internal">
        <lane id=":carrick_2_0" index="0" speed="6.63" length="20.23" shape="1138.13,2558.41 1141.21,2551.48 1142.03,2549.06 1140.59,2551.14 1136.89,2557.73"/>
    </edge>
    <edge id=":carrick_3" function="internal">
        <lane id=":carrick_3_0" index="0" speed="6.11" length="15.47" shape="1132.83,2556.22 1131.94,2561.76 1132.32,2563.86 1133.97,2562.51 1136.89,2557.73"/>
    </edge>
    <edge id=":carrick_4" function="internal">
        <lane id=":carrick_4_0" index="0" speed="10.00" length="29.06" shape="1132.83,2556.22 1130.77,2567.18 1129.71,2575.61 1129.65,2581.51 1130.60,2584.89"/>
    </edge>
    <edge id=":carrick_5" function="internal">
        <lane id=":carrick_5_0" index="0" speed="8.54" length="27.15" shape="1132.83,2556.22 1130.55,2566.09 1127.97,2574.48 1125.29,2579.24 1122.70,2578.23"/>
    </edge>
    <edge id=":castlebar_0" function="internal">
        <lane id=":castlebar_0_0" index="0" speed="9.65" length="14.10" shape="301.93,2449.85 300.48,2447.76 299.87,2444.82 300.11,2441.04 301.20,2436.40"/>
    </edge>
    <edge id=":castlebar_1" function="internal">
        <lane id=":castlebar_1_0" index="0" speed="7.17" length="12.76" shape="301.93,2449.85 300.51,2447.73 300.66,2445.30 302.40,2442.55 305.72,2439.49"/>
    </edge>
    <edge id=":cavan_0" function="internal">
        <lane id=":cavan_0_0" index="0" speed="5.77" length="14.52" shape="1692.97,2606.03 1692.75,2606.38 1691.76,2608.74 1690.00,2613.09 1687.47,2619.45"/>
    </edge>
    <edge id=":cavan_1" function="internal">
        <lane id=":cavan_1_0" index="0" speed="10.00" length="52.31" shape="1692.97,2606.03 1691.59,2617.85 1693.65,2629.78 1699.17,2641.81 1708.12,2653.93"/>
    </edge>
    <edge id=":cavan_2" function="internal">
        <lane id=":cavan_2_0" index="0" speed="10.00" length="53.26" shape="1692.97,2606.03 1691.40,2618.03 1692.93,2630.39 1697.55,2643.11 1705.26,2656.17"/>
    </edge>
    <edge id=":cavan_3" function="internal">
        <lane id=":cavan_3_0" index="0" speed="10.00" length="43.00" shape="1692.97,2606.03 1692.52,2614.12 1692.92,2627.54 1693.95,2640.91 1695.38,2648.84"/>
    </edge>
    <edge id=":cavan_4" function="internal">
        <lane id=":cavan_4_0" index="0" speed="5.80" length="13.95" shape="1692.97,2606.03 1690.51,2609.56 1688.09,2610.70 1685.73,2609.46 1683.42,2605.82"/>
    </edge>
    <edge id=":cavan_5" function="internal">
        <lane id=":cavan_5_0" index="0" speed="7.16" length="20.20" shape="1674.57,2608.17 1678.44,2613.92 1681.20,2615.45 1682.86,2612.75 1683.42,2605.82"/>
    </edge>
    <edge id=":cavan_6" function="internal">
        <lane id=":cavan_6_0" index="0" speed="7.76" length="20.17" shape="1674.57,2608.17 1679.19,2615.67 1682.88,2620.05 1685.64,2621.31 1687.47,2619.45"/>
    </edge>
    <edge id=":cavan_7" function="internal">
        <lane id=":cavan_7_0" index="0" speed="10.00" length="56.75" shape="1674.57,2608.17 1680.38,2616.63 1691.03,2631.28 1701.83,2645.81 1708.12,2653.93"/>
    </edge>
    <edge id=":cavan_8" function="internal">
        <lane id=":cavan_8_0" index="0" speed="10.00" length="56.97" shape="1674.57,2608.17 1680.00,2616.94 1689.76,2632.27 1699.60,2647.56 1705.26,2656.17"/>
    </edge>
    <edge id=":cavan_9" function="internal">
        <lane id=":cavan_9_0" index="0" speed="10.00" length="45.68" shape="1674.57,2608.17 1695.38,2648.84"/>
    </edge>
    <edge id=":cavan_10" function="internal">
        <lane id=":cavan_10_0" index="0" speed="7.43" length="21.30" shape="1673.39,2608.93 1677.77,2614.59 1680.90,2615.96 1682.79,2613.04 1683.42,2605.82"/>
    </edge>
    <edge id=":cavan_11" function="internal">
        <lane id=":cavan_11_0" index="0" speed="7.95" length="20.64" shape="1673.39,2608.93 1678.50,2616.18 1682.55,2620.35 1685.53,2621.44 1687.47,2619.45"/>
    </edge>
    <edge id=":cavan_12" function="internal">
        <lane id=":cavan_12_0" index="0" speed="10.00" length="56.85" shape="1673.39,2608.93 1679.49,2617.21 1690.53,2631.60 1701.68,2645.90 1708.12,2653.93"/>
    </edge>
    <edge id=":cavan_13" function="internal">
        <lane id=":cavan_13_0" index="0" speed="10.00" length="56.99" shape="1673.39,2608.93 1705.26,2656.17"/>
    </edge>
    <edge id=":cavan_14" function="internal">
        <lane id=":cavan_14_0" index="0" speed="10.00" length="45.58" shape="1673.39,2608.93 1677.67,2616.30 1684.62,2628.76 1691.45,2641.28 1695.38,2648.84"/>
    </edge>
    <edge id=":cavan_15" function="internal">
        <lane id=":cavan_15_0" index="0" speed="10.00" length="48.29" shape="1644.88,2598.64 1661.73,2609.66 1673.78,2614.54 1681.00,2613.26 1683.42,2605.82"/>
    </edge>
    <edge id=":cavan_16" function="internal">
        <lane id=":cavan_16_0" index="0" speed="10.00" length="49.26" shape="1644.88,2598.64 1662.31,2610.76 1675.22,2618.27 1683.61,2621.17 1687.47,2619.45"/>
    </edge>
    <edge id=":cavan_17" function="internal">
        <lane id=":cavan_17_0" index="0" speed="10.00" length="84.01" shape="1644.88,2598.64 1656.00,2607.99 1676.78,2625.98 1697.42,2644.12 1708.12,2653.93"/>
    </edge>
    <edge id=":cavan_18" function="internal">
        <lane id=":cavan_18_0" index="0" speed="10.00" length="83.42" shape="1644.88,2598.64 1655.61,2608.30 1675.51,2626.98 1695.19,2645.87 1705.26,2656.17"/>
    </edge>
    <edge id=":cavan_19" function="internal">
        <lane id=":cavan_19_0" index="0" speed="10.00" length="71.25" shape="1644.88,2598.64 1654.18,2607.09 1670.86,2623.14 1687.18,2639.49 1695.38,2648.84"/>
    </edge>
    <edge id=":cavan_20" function="internal">
        <lane id=":cavan_20_0" index="0" speed="10.00" length="49.48" shape="1642.92,2601.51 1660.63,2611.37 1673.29,2615.38 1680.88,2613.53 1683.42,2605.82"/>
    </edge>
    <edge id=":cavan_21" function="internal">
        <lane id=":cavan_21_0" index="0" speed="10.00" length="49.84" shape="1642.92,2601.51 1661.20,2612.42 1674.71,2619.05 1683.47,2621.39 1687.47,2619.45"/>
    </edge>
    <edge id=":cavan_22" function="internal">
        <lane id=":cavan_22_0" index="0" speed="10.00" length="83.67" shape="1642.92,2601.51 1654.43,2610.30 1675.87,2627.31 1697.14,2644.53 1708.12,2653.93"/>
    </edge>
    <edge id=":cavan_23" function="internal">
        <lane id=":cavan_23_0" index="0" speed="10.00" length="82.94" shape="1642.92,2601.51 1654.04,2610.60 1674.60,2628.30 1694.91,2646.28 1705.26,2656.17"/>
    </edge>
    <edge id=":cavan_24" function="internal">
        <lane id=":cavan_24_0" index="0" speed="10.00" length="70.71" shape="1642.92,2601.51 1652.61,2609.39 1669.96,2624.47 1686.90,2639.90 1695.38,2648.84"/>
    </edge>
    <edge id=":cavan_25" function="internal">
        <lane id=":cavan_25_0" index="0" speed="10.00" length="28.00" shape="1683.00,2633.82 1683.28,2628.05 1683.40,2619.83 1683.42,2611.61 1683.42,2605.82"/>
    </edge>
    <edge id=":cavan_26" function="internal">
        <lane id=":cavan_26_0" index="0" speed="10.00" length="15.09" shape="1683.00,2633.82 1683.65,2630.13 1684.73,2626.51 1686.06,2622.96 1687.47,2619.45"/>
    </edge>
    <edge id=":cavan_27" function="internal">
        <lane id=":cavan_27_0" index="0" speed="9.80" length="34.24" shape="1683.00,2633.82 1685.54,2632.39 1691.38,2636.45 1699.31,2644.22 1708.12,2653.93"/>
    </edge>
    <edge id=":cavan_28" function="internal">
        <lane id=":cavan_28_0" index="0" speed="9.51" length="33.89" shape="1683.00,2633.82 1685.36,2632.39 1690.63,2637.03 1697.65,2645.65 1705.26,2656.17"/>
    </edge>
    <edge id=":cavan_29" function="internal">
        <lane id=":cavan_29_0" index="0" speed="7.29" length="20.78" shape="1683.00,2633.82 1684.77,2633.26 1688.37,2637.27 1692.38,2643.31 1695.38,2648.84"/>
    </edge>
    <edge id=":clonmel_0" function="internal">
        <lane id=":clonmel_0_0" index="0" speed="5.32" length="11.21" shape="1383.40,609.98 1383.65,606.06 1384.28,604.76 1385.29,606.08 1386.68,610.02"/>
    </edge>
    <edge id=":clonmel_1" function="internal">
        <lane id=":clonmel_1_0" index="0" speed="3.65" length="4.67" shape="1383.40,609.98 1384.21,608.79 1385.02,608.40 1385.81,608.81 1386.60,610.02"/>
    </edge>
    <edge id=":cork_0" function="internal">
        <lane id=":cork_0_0" index="0" speed="2.79" length="1.61" shape="818.39,10.34 818.67,10.85 818.83,11.00 818.86,10.79 818.77,10.21"/>
    </edge>
    <edge id=":cork_1" function="internal">
        <lane id=":cork_1_0" index="0" speed="4.91" length="7.69" shape="818.39,10.34 816.99,8.12 815.77,7.36 814.71,8.07 813.81,10.25"/>
    </edge>
    <edge id=":cork_2" function="internal">
        <lane id=":cork_2_0" index="0" speed="5.52" length="12.37" shape="818.39,10.34 815.34,8.04 814.40,5.87 815.58,3.81 818.88,1.88"/>
    </edge>
    <edge id=":craigavon_0" function="internal">
        <lane id=":craigavon_0_0" index="0" speed="8.10" length="28.47" shape="2140.92,3124.18 2144.38,3133.83 2146.97,3136.86 2148.69,3133.27 2149.54,3123.05"/>
    </edge>
    <edge id=":craigavon_1" function="internal">
        <lane id=":craigavon_1_0" index="0" speed="8.70" length="31.90" shape="2140.92,3124.18 2144.85,3134.67 2148.19,3137.98 2150.95,3134.12 2153.12,3123.08"/>
    </edge>
    <edge id=":craigavon_2" function="internal">
        <lane id=":craigavon_2_0" index="0" speed="9.43" length="37.15" shape="2140.92,3124.18 2144.37,3136.73 2146.67,3148.48 2146.21,3155.33 2141.37,3153.17"/>
    </edge>
    <edge id=":craigavon_3" function="internal">
        <lane id=":craigavon_3_0" index="0" speed="9.09" length="30.31" shape="2143.98,3150.72 2146.03,3150.93 2147.64,3146.39 2148.81,3137.10 2149.54,3123.05"/>
    </edge>
    <edge id=":craigavon_4" function="internal">
        <lane id=":craigavon_4_0" index="0" speed="9.46" length="31.42" shape="2143.98,3150.72 2146.38,3151.07 2148.71,3146.59 2150.95,3137.25 2153.12,3123.08"/>
    </edge>
    <edge id=":craigavon_5" function="internal">
        <lane id=":craigavon_5_0" index="0" speed="3.81" length="5.24" shape="2143.98,3150.72 2144.25,3152.31 2143.91,3153.25 2142.95,3153.54 2141.37,3153.17"/>
    </edge>
    <edge id=":derry_0" function="internal">
        <lane id=":derry_0_0" index="0" speed="3.67" length="4.48" shape="1612.53,3880.55 1612.39,3881.67 1611.52,3882.35 1610.41,3882.42 1609.55,3881.69"/>
    </edge>
    <edge id=":derry_1" function="internal">
        <lane id=":derry_1_0" index="0" speed="3.70" length="4.67" shape="1612.53,3880.55 1612.19,3881.94 1611.57,3882.59 1610.68,3882.48 1609.53,3881.62"/>
    </edge>
    <edge id=":dublin_0" function="internal">
        <lane id=":dublin_0_0" index="0" speed="8.88" length="11.72" shape="2315.24,1824.95 2317.25,1821.30 2318.41,1818.26 2318.71,1815.85 2318.17,1814.06"/>
    </edge>
    <edge id=":dublin_1" function="internal">
        <lane id=":dublin_1_0" index="0" speed="6.80" length="18.44" shape="2315.24,1824.95 2319.08,1819.56 2321.60,1818.04 2322.81,1820.40 2322.70,1826.63"/>
    </edge>
    <edge id=":dublin_2" function="internal">
        <lane id=":dublin_2_0" index="0" speed="10.00" length="12.62" shape="2319.20,1826.29 2319.69,1822.88 2319.95,1819.89 2319.57,1817.04 2318.17,1814.06"/>
    </edge>
    <edge id=":dublin_3" function="internal">
        <lane id=":dublin_3_0" index="0" speed="3.78" length="5.13" shape="2319.20,1826.29 2320.20,1825.07 2321.11,1824.71 2321.95,1825.23 2322.70,1826.63"/>
    </edge>
    <edge id=":dundalk_0" function="internal">
        <lane id=":dundalk_0_0" index="0" speed="6.95" length="14.44" shape="2247.17,2624.01 2246.19,2627.46 2244.07,2628.96 2240.82,2628.52 2236.44,2626.14"/>
    </edge>
    <edge id=":dundalk_1" function="internal">
        <lane id=":dundalk_1_0" index="0" speed="5.72" length="9.19" shape="2236.12,2633.03 2238.32,2631.41 2239.11,2629.72 2238.48,2627.97 2236.44,2626.14"/>
    </edge>
    <edge id=":ennis_0" function="internal">
        <lane id=":ennis_0_0" index="0" speed="7.28" length="24.79" shape="484.77,1221.40 488.49,1229.89 490.04,1232.61 489.40,1229.55 486.59,1220.71"/>
    </edge>
    <edge id=":ennis_1" function="internal">
        <lane id=":ennis_1_0" index="0" speed="7.21" length="18.56" shape="484.77,1221.40 482.79,1215.69 481.95,1210.43 483.01,1207.16 486.75,1207.39"/>
    </edge>
    <edge id=":ennis_2" function="internal">
        <lane id=":ennis_2_0" index="0" speed="4.45" length="7.10" shape="488.45,1219.30 486.82,1217.47 485.96,1217.09 485.89,1218.18 486.59,1220.71"/>
    </edge>
    <edge id=":ennis_3" function="internal">
        <lane id=":ennis_3_0" index="0" speed="6.40" length="16.04" shape="488.45,1219.30 485.59,1214.83 483.78,1210.32 483.88,1207.32 486.75,1207.39"/>
    </edge>
    <edge id=":ennis_4" function="internal">
        <lane id=":ennis_4_0" index="0" speed="6.91" length="9.02" shape="483.34,1199.97 483.01,1202.36 483.47,1204.40 484.72,1206.08 486.75,1207.39"/>
    </edge>
    <edge id=":ennis_5" function="internal">
        <lane id=":ennis_5_0" index="0" speed="10.00" length="21.17" shape="483.34,1199.97 483.06,1204.57 483.87,1210.37 485.22,1216.15 486.59,1220.71"/>
    </edge>
    <edge id=":enniskillen_0" function="internal">
        <lane id=":enniskillen_0_0" index="0" speed="2.87" length="1.78" shape="1454.10,3049.87 1454.26,3050.49 1454.40,3050.70 1454.52,3050.48 1454.62,3049.85"/>
    </edge>
    <edge id=":enniskillen_1" function="internal">
        <lane id=":enniskillen_1_0" index="0" speed="3.30" length="2.99" shape="1454.10,3049.87 1454.38,3050.90 1454.63,3051.24 1454.86,3050.88 1455.06,3049.83"/>
    </edge>
    <edge id=":enniskillen_2" function="internal">
        <lane id=":enniskillen_2_0" index="0" speed="6.80" length="12.20" shape="1454.10,3049.87 1455.34,3053.92 1457.02,3056.37 1459.16,3057.23 1461.74,3056.49"/>
    </edge>
    <edge id=":enniskillen_3" function="internal">
        <lane id=":enniskillen_3_0" index="0" speed="10.00" length="15.79" shape="1454.10,3049.87 1455.47,3054.73 1457.31,3058.44 1459.62,3061.02 1462.40,3062.45"/>
    </edge>
    <edge id=":enniskillen_4" function="internal">
        <lane id=":enniskillen_4_0" index="0" speed="10.00" length="16.92" shape="1454.10,3049.87 1454.92,3053.85 1455.68,3058.22 1456.10,3062.60 1455.94,3066.61"/>
    </edge>
    <edge id=":enniskillen_5" function="internal">
        <lane id=":enniskillen_5_0" index="0" speed="5.21" length="8.99" shape="1449.72,3051.44 1451.57,3053.61 1453.01,3054.06 1454.02,3052.81 1454.62,3049.85"/>
    </edge>
    <edge id=":enniskillen_6" function="internal">
        <lane id=":enniskillen_6_0" index="0" speed="5.34" length="9.41" shape="1449.72,3051.44 1451.65,3053.68 1453.18,3054.16 1454.32,3052.87 1455.06,3049.83"/>
    </edge>
    <edge id=":enniskillen_7" function="internal">
        <lane id=":enniskillen_7_0" index="0" speed="8.37" length="14.46" shape="1449.72,3051.44 1452.64,3054.93 1455.62,3056.93 1458.65,3057.45 1461.74,3056.49"/>
    </edge>
    <edge id=":enniskillen_8" function="internal">
        <lane id=":enniskillen_8_0" index="0" speed="10.00" length="17.06" shape="1449.72,3051.44 1452.21,3054.71 1455.32,3057.98 1458.79,3060.73 1462.40,3062.45"/>
    </edge>
    <edge id=":enniskillen_9" function="internal">
        <lane id=":enniskillen_9_0" index="0" speed="10.00" length="16.71" shape="1449.72,3051.44 1451.98,3054.86 1454.16,3058.72 1455.67,3062.74 1455.94,3066.61"/>
    </edge>
    <edge id=":galway_0" function="internal">
        <lane id=":galway_0_0" index="0" speed="10.00" length="0.59" shape="479.87,1751.07 480.04,1751.21 480.12,1751.25 480.10,1751.18 479.99,1751.00"/>
    </edge>
    <edge id=":galway_1" function="internal">
        <lane id=":galway_1_0" index="0" speed="7.38" length="18.89" shape="479.87,1751.07 475.10,1746.03 473.53,1742.29 475.16,1739.86 479.99,1738.72"/>
    </edge>
    <edge id=":galway_2" function="internal">
        <lane id=":galway_2_0" index="0" speed="7.32" length="18.85" shape="479.87,1751.07 475.05,1746.00 473.46,1742.31 475.12,1739.98 480.01,1739.03"/>
    </edge>
    <edge id=":galway_3" function="internal">
        <lane id=":galway_3_0" index="0" speed="4.19" length="6.67" shape="479.87,1751.07 479.55,1749.03 480.01,1747.84 481.24,1747.49 483.24,1747.98"/>
    </edge>
    <edge id=":kilkenny_0" function="internal">
        <lane id=":kilkenny_0_0" index="0" speed="10.00" length="12.95" shape="1681.58,949.76 1683.91,952.32 1685.86,954.71 1687.39,957.31 1688.48,960.52"/>
    </edge>
    <edge id=":kilkenny_1" function="internal">
        <lane id=":kilkenny_1_0" index="0" speed="8.14" length="12.09" shape="1678.52,955.40 1682.42,955.72 1685.38,956.68 1687.40,958.28 1688.48,960.52"/>
    </edge>
    <edge id=":kilkenny_2" function="internal">
        <lane id=":kilkenny_2_0" index="0" speed="5.65" length="11.20" shape="1682.41,961.31 1684.30,957.73 1685.94,956.41 1687.33,957.34 1688.48,960.52"/>
    </edge>
    <edge id=":letterkenny_0" function="internal">
        <lane id=":letterkenny_0_0" index="0" speed="9.36" length="27.84" shape="1353.71,3796.14 1348.81,3800.64 1343.63,3799.57 1338.50,3794.56 1333.79,3787.22"/>
    </edge>
    <edge id=":letterkenny_1" function="internal">
        <lane id=":letterkenny_1_0" index="0" speed="8.17" length="26.70" shape="1353.71,3796.14 1349.88,3798.95 1347.03,3794.93 1345.28,3787.00 1344.74,3778.11"/>
    </edge>
    <edge id=":letterkenny_2" function="internal">
        <lane id=":letterkenny_2_0" index="0" speed="8.37" length="26.63" shape="1351.65,3778.45 1348.94,3785.79 1344.13,3790.56 1338.61,3791.47 1333.79,3787.22"/>
    </edge>
    <edge id=":letterkenny_3" function="internal">
        <lane id=":letterkenny_3_0" index="0" speed="4.89" length="9.73" shape="1351.65,3778.45 1350.33,3780.54 1347.97,3781.15 1345.72,3780.32 1344.74,3778.11"/>
    </edge>
    <edge id=":letterkenny_4" function="internal">
        <lane id=":letterkenny_4_0" index="0" speed="7.58" length="22.77" shape="1347.94,3778.15 1346.32,3784.66 1342.51,3789.25 1337.89,3790.56 1333.79,3787.22"/>
    </edge>
    <edge id=":letterkenny_5" function="internal">
        <lane id=":letterkenny_5_0" index="0" speed="3.65" length="4.67" shape="1347.94,3778.15 1347.13,3779.34 1346.32,3779.73 1345.53,3779.32 1344.74,3778.11"/>
    </edge>
    <edge id=":letterkenny_6" function="internal">
        <lane id=":letterkenny_6_0" index="0" speed="6.40" length="16.92" shape="1340.33,3783.90 1342.17,3788.26 1343.52,3788.74 1344.38,3785.36 1344.74,3778.11"/>
    </edge>
    <edge id=":letterkenny_7" function="internal">
        <lane id=":letterkenny_7_0" index="0" speed="5.12" length="10.71" shape="1340.33,3783.90 1339.93,3787.18 1338.71,3788.83 1336.66,3788.84 1333.79,3787.22"/>
    </edge>
    <edge id=":limerick_0" function="internal">
        <lane id=":limerick_0_0" index="0" speed="8.41" length="12.29" shape="742.32,960.37 743.53,958.20 745.65,956.64 748.70,955.71 752.67,955.40"/>
    </edge>
    <edge id=":limerick_1" function="internal">
        <lane id=":limerick_1_0" index="0" speed="7.71" length="20.78" shape="742.32,960.37 744.47,958.41 747.76,960.78 751.60,965.92 755.41,972.26"/>
    </edge>
    <edge id=":limerick_2" function="internal">
        <lane id=":limerick_2_0" index="0" speed="7.33" length="20.62" shape="742.32,960.37 744.36,958.09 746.86,961.03 749.42,967.01 751.66,973.85"/>
    </edge>
    <edge id=":longford_0" function="internal">
        <lane id=":longford_0_0" index="0" speed="10.00" length="24.15" shape="1356.53,2319.96 1353.14,2316.05 1348.80,2310.70 1344.51,2305.29 1341.31,2301.22"/>
    </edge>
    <edge id=":longford_1" function="internal">
        <lane id=":longford_1_0" index="0" speed="10.00" length="18.58" shape="1356.53,2319.96 1355.37,2317.50 1355.26,2313.69 1356.18,2308.53 1358.15,2302.02"/>
    </edge>
    <edge id=":longford_2" function="internal">
        <lane id=":longford_2_0" index="0" speed="8.43" length="33.90" shape="1356.53,2319.96 1365.38,2329.09 1368.71,2331.85 1366.52,2328.23 1358.81,2318.23"/>
    </edge>
    <edge id=":longford_3" function="internal">
        <lane id=":longford_3_0" index="0" speed="5.47" length="10.56" shape="1352.72,2301.85 1353.97,2305.16 1355.30,2306.29 1356.69,2305.24 1358.15,2302.02"/>
    </edge>
    <edge id=":longford_4" function="internal">
        <lane id=":longford_4_0" index="0" speed="10.00" length="17.57" shape="1352.72,2301.85 1353.80,2305.89 1355.10,2310.38 1356.74,2314.70 1358.81,2318.23"/>
    </edge>
    <edge id=":longford_5" function="internal">
        <lane id=":longford_5_0" index="0" speed="6.23" length="15.53" shape="1352.72,2301.85 1352.20,2305.03 1349.13,2305.70 1344.99,2304.28 1341.31,2301.22"/>
    </edge>
    <edge id=":longford_6" function="internal">
        <lane id=":longford_6_0" index="0" speed="7.72" length="19.15" shape="1344.30,2298.86 1348.99,2304.22 1352.85,2306.53 1355.91,2305.79 1358.15,2302.02"/>
    </edge>
    <edge id=":longford_7" function="internal">
        <lane id=":longford_7_0" index="0" speed="10.00" length="24.20" shape="1344.30,2298.86 1358.81,2318.23"/>
    </edge>
    <edge id=":longford_8" function="internal">
        <lane id=":longford_8_0" index="0" speed="3.89" length="5.56" shape="1344.30,2298.86 1344.44,2300.57 1343.99,2301.54 1342.94,2301.75 1341.31,2301.22"/>
    </edge>
    <edge id=":monaghan_0" function="internal">
        <lane id=":monaghan_0_0" index="0" speed="10.00" length="11.69" shape="1841.52,2965.21 1838.75,2963.54 1836.53,2962.15 1834.42,2960.61 1831.95,2958.53"/>
    </edge>
    <edge id=":monaghan_1" function="internal">
        <lane id=":monaghan_1_0" index="0" speed="10.00" length="11.69" shape="1841.52,2965.21 1838.74,2963.54 1836.53,2962.14 1834.43,2960.60 1832.00,2958.47"/>
    </edge>
    <edge id=":monaghan_2" function="internal">
        <lane id=":monaghan_2_0" index="0" speed="6.86" length="14.36" shape="1839.88,2947.90 1838.66,2951.72 1836.57,2955.70 1834.15,2958.44 1831.95,2958.53"/>
    </edge>
    <edge id=":monaghan_3" function="internal">
        <lane id=":monaghan_3_0" index="0" speed="7.17" length="16.01" shape="1839.88,2947.90 1838.33,2954.28 1836.49,2958.17 1834.38,2959.57 1832.00,2958.47"/>
    </edge>
    <edge id=":monaghan_4" function="internal">
        <lane id=":monaghan_4_0" index="0" speed="6.96" length="17.88" shape="1834.07,2942.14 1834.66,2947.40 1834.65,2953.46 1833.82,2957.96 1831.95,2958.53"/>
    </edge>
    <edge id=":monaghan_5" function="internal">
        <lane id=":monaghan_5_0" index="0" speed="6.92" length="17.84" shape="1834.07,2942.14 1834.66,2947.39 1834.67,2953.46 1833.86,2957.96 1832.00,2958.47"/>
    </edge>
    <edge id=":monaghan_6" function="internal">
        <lane id=":monaghan_6_0" index="0" speed="7.02" length="20.12" shape="1830.17,2943.41 1832.82,2949.81 1834.75,2955.97 1834.83,2959.63 1831.95,2958.53"/>
    </edge>
    <edge id=":monaghan_7" function="internal">