<?xml version="1.0" encoding="UTF-8"?>

<!-- generated on 2024-09-30 18:12:35 by Eclipse SUMO netconvert Version 1.19.0
<configuration xmlns:xsi="http://www.w3.org/2001/XMLSchema-instance" xsi:noNamespaceSchemaLocation="http://sumo.dlr.de/xsd/netconvertConfiguration.xsd">

    <input>
        <node-files value="nod.xml"/>
        <edge-files value="edge_xmls/00000.xml"/>
    </input>

    <output>
        <output-file value="networks/00000.net.xml"/>
    </output>

</configuration>
-->

<net version="1.16" junctionCornerDetail="5" limitTurnSpeed="5.50" xmlns:xsi="http://www.w3.org/2001/XMLSchema-instance" xsi:noNamespaceSchemaLocation="http://sumo.dlr.de/xsd/net_file.xsd">

    <location netOffset="-682.00,4368.00" convBoundary="0.00,0.00,2498.00,3881.00" origBoundary="682.00,-4368.00,3180.00,-487.00" projParameter="!"/>

    <edge id=":antrim_0" function="internal">
        <lane id=":antrim_0_0" index="0" speed="6.23" length="14.51" shape="2287.23,3481.26 2287.07,3486.41 2285.95,3488.65 2283.87,3487.98 2280.84,3484.41"/>
    </edge>
    <edge id=":antrim_1" function="internal">
        <lane id=":antrim_1_0" index="0" speed="3.70" length="4.84" shape="2283.56,3482.51 2283.59,3484.01 2283.15,3484.82 2282.23,3484.96 2280.84,3484.41"/>
    </edge>
    <edge id=":athlone_0" function="internal">
        <lane id=":athlone_0_0" index="0" speed="7.09" length="13.30" shape="1256.88,1974.58 1255.64,1969.86 1253.96,1966.88 1251.86,1965.66 1249.34,1966.17"/>
    </edge>
    <edge id=":athlone_1" function="internal">
        <lane id=":athlone_1_0" index="0" speed="5.52" length="11.71" shape="1256.88,1974.58 1257.34,1971.46 1259.37,1969.43 1262.06,1969.02 1264.49,1970.73"/>
    </edge>
    <edge id=":athlone_2" function="internal">
        <lane id=":athlone_2_0" index="0" speed="8.40" length="15.07" shape="1261.11,1972.99 1258.22,1968.86 1255.30,1966.35 1252.34,1965.45 1249.34,1966.17"/>
    </edge>
    <edge id=":athlone_3" function="internal">
        <lane id=":athlone_3_0" index="0" speed="4.00" length="5.93" shape="1261.11,1972.99 1261.11,1971.16 1261.67,1970.17 1262.80,1970.03 1264.49,1970.73"/>
    </edge>
    <edge id=":athlone_4" function="internal">
        <lane id=":athlone_4_0" index="0" speed="5.45" length="10.07" shape="1267.87,1966.10 1264.63,1965.51 1262.99,1966.09 1262.94,1967.83 1264.49,1970.73"/>
    </edge>
    <edge id=":athlone_5" function="internal">
        <lane id=":athlone_5_0" index="0" speed="10.00" length="18.81" shape="1267.87,1966.10 1263.58,1965.21 1258.48,1964.77 1253.44,1965.01 1249.34,1966.17"/>
    </edge>
    <edge id=":athlone_6" function="internal">
        <lane id=":athlone_6_0" index="0" speed="8.72" length="16.75" shape="1265.85,1956.00 1262.90,1958.95 1261.69,1962.38 1262.22,1966.31 1264.49,1970.73"/>
    </edge>
    <edge id=":athlone_7" function="internal">
        <lane id=":athlone_7_0" index="0" speed="10.00" length="19.40" shape="1265.85,1956.00 1262.18,1958.49 1257.74,1961.32 1253.23,1964.03 1249.34,1966.17"/>
    </edge>
    <edge id=":athlone_8" function="internal">
        <lane id=":athlone_8_0" index="0" speed="10.00" length="18.17" shape="1259.22,1953.45 1260.49,1959.28 1261.55,1963.84 1262.76,1967.52 1264.49,1970.73"/>
    </edge>
    <edge id=":athlone_9" function="internal">
        <lane id=":athlone_9_0" index="0" speed="9.06" length="14.99" shape="1256.10,1954.15 1256.33,1957.79 1255.28,1961.01 1252.95,1963.81 1249.34,1966.17"/>
    </edge>
    <edge id=":belfast_0" function="internal">
        <lane id=":belfast_0_0" index="0" speed="5.75" length="12.38" shape="2486.87,3347.67 2489.97,3350.02 2491.65,3350.10 2491.89,3347.91 2490.72,3343.45"/>
    </edge>
    <edge id=":belfast_1" function="internal">
        <lane id=":belfast_1_0" index="0" speed="6.69" length="15.73" shape="2486.87,3347.67 2490.79,3350.48 2493.40,3350.57 2494.72,3347.94 2494.73,3342.59"/>
    </edge>
    <edge id=":belfast_2" function="internal">
        <lane id=":belfast_2_0" index="0" speed="7.51" length="20.19" shape="2486.87,3347.67 2489.74,3352.25 2489.35,3356.78 2486.21,3360.24 2480.82,3361.62"/>
    </edge>
    <edge id=":belfast_3" function="internal">
        <lane id=":belfast_3_0" index="0" speed="7.34" length="21.43" shape="2486.87,3347.67 2488.66,3351.69 2485.58,3354.58 2479.67,3355.94 2472.95,3355.41"/>
    </edge>
    <edge id=":belfast_4" function="internal">
        <lane id=":belfast_4_0" index="0" speed="7.26" length="24.60" shape="2486.87,3347.67 2479.98,3341.54 2477.45,3339.71 2479.28,3342.19 2485.47,3348.97"/>
    </edge>
    <edge id=":belfast_5" function="internal">
        <lane id=":belfast_5_0" index="0" speed="6.84" length="19.55" shape="2486.87,3347.67 2485.24,3353.48 2482.58,3356.10 2478.88,3355.55 2474.14,3351.81"/>
    </edge>
    <edge id=":bray_0" function="internal">
        <lane id=":bray_0_0" index="0" speed="3.65" length="4.67" shape="2387.84,1645.90 2388.83,1646.95 2389.04,1647.82 2388.47,1648.51 2387.12,1649.02"/>
    </edge>
    <edge id=":bray_1" function="internal">
        <lane id=":bray_1_0" index="0" speed="8.28" length="32.26" shape="2386.50,1652.61 2398.48,1653.75 2402.57,1653.53 2398.79,1651.95 2387.12,1649.02"/>
    </edge>
    <edge id=":bray_2" function="internal">
        <lane id=":bray_2_0" index="0" speed="10.00" length="58.13" shape="2442.81,1664.93 2439.72,1662.89 2429.41,1659.56 2411.88,1654.93 2387.12,1649.02"/>
    </edge>
    <edge id=":carlow_0" function="internal">
        <lane id=":carlow_0_0" index="0" speed="4.19" length="6.23" shape="1890.47,1162.99 1889.49,1160.94 1888.90,1160.33 1888.71,1161.16 1888.91,1163.42"/>
    </edge>
    <edge id=":carlow_1" function="internal">
        <lane id=":carlow_1_0" index="0" speed="6.13" length="14.34" shape="1890.47,1162.99 1888.41,1159.22 1886.74,1158.53 1885.46,1160.92 1884.57,1166.37"/>
    </edge>
    <edge id=":carlow_2" function="internal">
        <lane id=":carlow_2_0" index="0" speed="10.00" length="28.92" shape="1890.47,1162.99 1888.44,1157.42 1885.86,1149.27 1883.54,1141.06 1882.34,1135.27"/>
    </edge>
    <edge id=":carlow_3" function="internal">
        <lane id=":carlow_3_0" index="0" speed="6.92" length="21.39" shape="1890.47,1162.99 1884.54,1160.09 1882.24,1156.71 1883.57,1152.84 1888.52,1148.48"/>
    </edge>
    <edge id=":carrick_0" function="internal">
        <lane id=":carrick_0_0" index="0" speed="6.72" length="8.39" shape="1129.54,2575.23 1129.10,2577.55 1129.37,2579.52 1130.36,2581.15 1132.06,2582.42"/>
    </edge>
    <edge id=":carrick_1" function="internal">
        <lane id=":carrick_1_0" index="0" speed="10.00" length="9.85" shape="1122.96,2578.88 1125.81,2579.44 1127.70,2580.08 1129.50,2581.01 1132.06,2582.42"/>
    </edge>
    <edge id=":castlebar_0" function="internal">
        <lane id=":castlebar_0_0" index="0" speed="10.00" length="21.64" shape="305.09,2455.24 302.56,2450.52 302.20,2445.73 304.00,2440.89 307.97,2435.98"/>
    </edge>
    <edge id=":castlebar_1" function="internal">
        <lane id=":castlebar_1_0" index="0" speed="7.46" length="19.84" shape="305.09,2455.24 302.33,2450.40 302.86,2447.35 306.69,2446.10 313.81,2446.64"/>
    </edge>
    <edge id=":castlebar_2" function="internal">
        <lane id=":castlebar_2_0" index="0" speed="8.78" length="22.64" shape="312.53,2452.94 306.48,2449.49 303.70,2445.51 304.20,2441.00 307.97,2435.98"/>
    </edge>
    <edge id=":castlebar_3" function="internal">
        <lane id=":castlebar_3_0" index="0" speed="4.89" length="9.40" shape="312.53,2452.94 310.49,2450.89 310.02,2449.15 311.13,2447.73 313.81,2446.64"/>
    </edge>
    <edge id=":castlebar_4" function="internal">
        <lane id=":castlebar_4_0" index="0" speed="5.40" length="10.13" shape="312.67,2441.37 309.90,2443.14 309.17,2444.61 310.47,2445.77 313.81,2446.64"/>
    </edge>
    <edge id=":castlebar_5" function="internal">
        <lane id=":castlebar_5_0" index="0" speed="5.06" length="9.91" shape="312.67,2441.37 310.04,2441.67 307.92,2440.39 307.01,2438.25 307.97,2435.98"/>
    </edge>
    <edge id=":castlebar_6" function="internal">
        <lane id=":castlebar_6_0" index="0" speed="5.54" length="10.55" shape="312.31,2440.96 309.58,2442.89 308.92,2444.48 310.33,2445.73 313.81,2446.64"/>
    </edge>
    <edge id=":castlebar_7" function="internal">
        <lane id=":castlebar_7_0" index="0" speed="4.97" length="9.64" shape="312.31,2440.96 309.36,2441.34 307.65,2440.64 307.19,2438.85 307.97,2435.98"/>
    </edge>
    <edge id=":cavan_0" function="internal">
        <lane id=":cavan_0_0" index="0" speed="8.65" length="13.84" shape="1686.82,2635.39 1685.10,2634.16 1682.35,2633.89 1678.56,2634.59 1673.74,2636.26"/>
    </edge>
    <edge id=":cavan_1" function="internal">
        <lane id=":cavan_1_0" index="0" speed="10.00" length="18.93" shape="1686.82,2635.39 1684.94,2631.52 1683.55,2626.63 1682.61,2621.57 1682.05,2617.21"/>
    </edge>
    <edge id=":cavan_2" function="internal">
        <lane id=":cavan_2_0" index="0" speed="10.00" length="18.30" shape="1686.82,2635.39 1685.47,2632.37 1684.99,2628.39 1685.38,2623.45 1686.62,2617.56"/>
    </edge>
    <edge id=":cavan_3" function="internal">
        <lane id=":cavan_3_0" index="0" speed="10.00" length="45.19" shape="1686.82,2635.39 1686.77,2630.94 1690.44,2623.05 1697.81,2611.70 1708.90,2596.90"/>
    </edge>
    <edge id=":cavan_4" function="internal">
        <lane id=":cavan_4_0" index="0" speed="10.00" length="44.78" shape="1686.82,2635.39 1686.92,2631.05 1691.08,2623.58 1699.30,2612.96 1711.60,2599.20"/>
    </edge>
    <edge id=":cavan_5" function="internal">
        <lane id=":cavan_5_0" index="0" speed="3.92" length="5.53" shape="1686.82,2635.39 1686.60,2633.70 1687.01,2632.72 1688.03,2632.46 1689.68,2632.91"/>
    </edge>
    <edge id=":cavan_6" function="internal">
        <lane id=":cavan_6_0" index="0" speed="5.46" length="10.06" shape="1677.58,2640.53 1678.82,2637.49 1678.59,2635.76 1676.90,2635.35 1673.74,2636.26"/>
    </edge>
    <edge id=":cavan_7" function="internal">
        <lane id=":cavan_7_0" index="0" speed="10.00" length="23.90" shape="1677.58,2640.53 1679.34,2635.73 1680.89,2629.08 1681.90,2622.33 1682.05,2617.21"/>
    </edge>
    <edge id=":cavan_8" function="internal">
        <lane id=":cavan_8_0" index="0" speed="10.00" length="24.72" shape="1677.58,2640.53 1679.80,2635.76 1682.50,2629.20 1685.00,2622.57 1686.62,2617.56"/>
    </edge>
    <edge id=":cavan_9" function="internal">
        <lane id=":cavan_9_0" index="0" speed="10.00" length="53.72" shape="1677.58,2640.53 1683.03,2632.41 1692.97,2618.54 1703.04,2604.76 1708.90,2596.90"/>
    </edge>
    <edge id=":cavan_10" function="internal">
        <lane id=":cavan_10_0" index="0" speed="10.00" length="53.55" shape="1677.58,2640.53 1683.41,2632.73 1694.19,2619.58 1705.17,2606.58 1711.60,2599.20"/>
    </edge>
    <edge id=":cavan_11" function="internal">
        <lane id=":cavan_11_0" index="0" speed="7.76" length="16.97" shape="1677.58,2640.53 1681.00,2635.06 1684.15,2631.96 1687.05,2631.24 1689.68,2632.91"/>
    </edge>
    <edge id=":clonmel_0" function="internal">
        <lane id=":clonmel_0_0" index="0" speed="7.03" length="21.75" shape="1397.46,643.35 1394.08,636.16 1392.22,634.01 1391.87,636.91 1393.04,644.87"/>
    </edge>
    <edge id=":clonmel_1" function="internal">
        <lane id=":clonmel_1_0" index="0" speed="7.92" length="27.13" shape="1397.46,643.35 1393.19,634.63 1390.44,632.09 1389.22,635.74 1389.51,645.57"/>
    </edge>
    <edge id=":clonmel_2" function="internal">
        <lane id=":clonmel_2_0" index="0" speed="3.83" length="5.34" shape="1397.46,643.35 1397.88,641.75 1398.59,641.02 1399.61,641.16 1400.92,642.16"/>
    </edge>
    <edge id=":cork_0" function="internal">
        <lane id=":cork_0_0" index="0" speed="3.73" length="4.65" shape="813.40,0.03 814.05,-1.25 814.79,-1.74 815.63,-1.44 816.56,-0.35"/>
    </edge>
    <edge id=":craigavon_0" function="internal">
        <lane id=":craigavon_0_0" index="0" speed="7.23" length="13.76" shape="2150.31,3150.12 2150.61,3155.21 2149.96,3158.72 2148.36,3160.66 2145.82,3161.03"/>
    </edge>
    <edge id=":craigavon_1" function="internal">
        <lane id=":craigavon_1_0" index="0" speed="6.17" length="13.26" shape="2145.41,3152.34 2148.67,3156.58 2149.83,3159.43 2148.88,3160.92 2145.82,3161.03"/>
    </edge>
    <edge id=":derry_0" function="internal">
        <lane id=":derry_0_0" index="0" speed="5.54" length="13.02" shape="1619.51,3848.27 1618.64,3853.03 1618.66,3854.70 1619.58,3853.30 1621.39,3848.82"/>
    </edge>
    <edge id=":derry_1" function="internal">
        <lane id=":derry_1_0" index="0" speed="10.00" length="38.45" shape="1619.51,3848.27 1615.73,3863.30 1611.68,3873.65 1607.36,3879.33 1602.77,3880.33"/>
    </edge>
    <edge id=":derry_2" function="internal">
        <lane id=":derry_2_0" index="0" speed="8.33" length="26.82" shape="1619.51,3848.27 1616.55,3855.03 1611.39,3861.86 1605.96,3865.90 1602.19,3864.26"/>
    </edge>
    <edge id=":derry_3" function="internal">
        <lane id=":derry_3_0" index="0" speed="7.90" length="26.29" shape="1619.51,3848.27 1616.72,3856.49 1612.63,3863.38 1608.58,3866.25 1605.94,3862.44"/>
    </edge>
    <edge id=":derry_4" function="internal">
        <lane id=":derry_4_0" index="0" speed="5.52" length="12.82" shape="1619.51,3848.27 1617.62,3850.96 1614.51,3851.64 1611.61,3850.44 1610.40,3847.48"/>
    </edge>
    <edge id=":derry_5" function="internal">
        <lane id=":derry_5_0" index="0" speed="7.14" length="22.21" shape="1615.94,3847.69 1615.49,3855.75 1616.24,3858.62 1618.21,3856.31 1621.39,3848.82"/>
    </edge>
    <edge id=":derry_6" function="internal">
        <lane id=":derry_6_0" index="0" speed="10.00" length="37.95" shape="1615.94,3847.69 1614.19,3861.32 1611.64,3872.16 1607.94,3878.93 1602.77,3880.33"/>
    </edge>
    <edge id=":derry_7" function="internal">
        <lane id=":derry_7_0" index="0" speed="8.42" length="28.76" shape="1615.94,3847.69 1613.95,3856.85 1610.36,3864.57 1606.13,3867.99 1602.19,3864.26"/>
    </edge>
    <edge id=":derry_8" function="internal">
        <lane id=":derry_8_0" index="0" speed="7.41" length="23.87" shape="1615.94,3847.69 1614.22,3855.52 1611.25,3862.41 1608.13,3865.63 1605.94,3862.44"/>
    </edge>
    <edge id=":derry_9" function="internal">
        <lane id=":derry_9_0" index="0" speed="4.50" length="8.11" shape="1615.94,3847.69 1614.48,3849.72 1613.06,3850.36 1611.70,3849.61 1610.40,3847.48"/>
    </edge>
    <edge id=":dublin_0" function="internal">
        <lane id=":dublin_0_0" index="0" speed="10.00" length="31.26" shape="2316.35,1805.39 2320.13,1812.76 2321.91,1820.18 2321.69,1827.66 2319.48,1835.20"/>
    </edge>
    <edge id=":dublin_1" function="internal">
        <lane id=":dublin_1_0" index="0" speed="10.00" length="28.31" shape="2316.35,1805.39 2319.21,1812.20 2318.16,1817.72 2313.65,1822.47 2306.15,1826.98"/>
    </edge>
    <edge id=":dublin_2" function="internal">
        <lane id=":dublin_2_0" index="0" speed="10.00" length="27.73" shape="2313.01,1808.58 2317.34,1813.11 2319.39,1818.82 2319.13,1825.73 2316.59,1833.82"/>
    </edge>
    <edge id=":dublin_3" function="internal">
        <lane id=":dublin_3_0" index="0" speed="9.01" length="24.87" shape="2313.01,1808.58 2317.04,1813.44 2316.54,1818.29 2312.56,1822.89 2306.15,1826.98"/>
    </edge>
    <edge id=":dublin_4" function="internal">
        <lane id=":dublin_4_0" index="0" speed="5.62" length="12.13" shape="2309.45,1830.42 2311.78,1826.97 2312.01,1825.24 2310.13,1825.25 2306.15,1826.98"/>
    </edge>
    <edge id=":dublin_5" function="internal">
        <lane id=":dublin_5_0" index="0" speed="5.35" length="11.54" shape="2309.45,1830.42 2312.51,1828.59 2314.72,1828.55 2316.08,1830.29 2316.59,1833.82"/>
    </edge>
    <edge id=":dundalk_0" function="internal">
        <lane id=":dundalk_0_0" index="0" speed="10.00" length="9.81" shape="2244.96,2625.29 2245.94,2628.03 2246.45,2629.96 2246.68,2631.95 2246.83,2634.85"/>
    </edge>
    <edge id=":dundalk_1" function="internal">
        <lane id=":dundalk_1_0" index="0" speed="5.88" length="10.93" shape="2244.96,2625.29 2245.60,2628.30 2244.82,2630.03 2242.63,2630.49 2239.01,2629.67"/>
    </edge>
    <edge id=":dundalk_2" function="internal">
        <lane id=":dundalk_2_0" index="0" speed="3.75" length="4.98" shape="2244.96,2625.29 2244.68,2626.80 2244.06,2627.53 2243.11,2627.47 2241.82,2626.63"/>
    </edge>
    <edge id=":ennis_0" function="internal">
        <lane id=":ennis_0_0" index="0" speed="8.27" length="22.52" shape="483.69,1218.84 481.98,1212.48 483.25,1208.52 487.49,1206.94 494.69,1207.76"/>
    </edge>
    <edge id=":ennis_1" function="internal">
        <lane id=":ennis_1_0" index="0" speed="4.95" length="9.57" shape="483.69,1218.84 483.73,1215.88 484.66,1214.31 486.49,1214.10 489.20,1215.28"/>
    </edge>
    <edge id=":ennis_2" function="internal">
        <lane id=":ennis_2_0" index="0" speed="7.56" length="21.96" shape="487.63,1216.48 483.42,1210.98 483.20,1207.69 486.96,1206.62 494.69,1207.76"/>
    </edge>
    <edge id=":ennis_3" function="internal">
        <lane id=":ennis_3_0" index="0" speed="6.77" length="20.95" shape="487.63,1216.48 493.09,1222.13 495.17,1223.81 493.87,1221.53 489.20,1215.28"/>
    </edge>
    <edge id=":ennis_4" function="internal">
        <lane id=":ennis_4_0" index="0" speed="5.70" length="11.21" shape="493.97,1210.88 489.94,1210.29 487.80,1210.82 487.55,1212.49 489.20,1215.28"/>
    </edge>
    <edge id=":ennis_5" function="internal">
        <lane id=":ennis_5_0" index="0" speed="3.65" length="4.67" shape="493.97,1210.88 492.98,1209.83 492.77,1208.96 493.35,1208.27 494.69,1207.76"/>
    </edge>
    <edge id=":ennis_6" function="internal">
        <lane id=":ennis_6_0" index="0" speed="5.48" length="10.73" shape="494.36,1202.41 491.09,1203.96 490.05,1205.37 491.26,1206.63 494.69,1207.76"/>
    </edge>
    <edge id=":ennis_7" function="internal">
        <lane id=":ennis_7_0" index="0" speed="7.93" length="17.18" shape="494.36,1202.41 489.63,1204.84 487.19,1207.80 487.05,1211.28 489.20,1215.28"/>
    </edge>
    <edge id=":enniskillen_0" function="internal">
        <lane id=":enniskillen_0_0" index="0" speed="10.00" length="14.03" shape="1458.74,3064.14 1456.35,3063.30 1453.93,3061.43 1451.48,3058.53 1448.99,3054.61"/>
    </edge>
    <edge id=":enniskillen_1" function="internal">
        <lane id=":enniskillen_1_0" index="0" speed="6.92" length="13.11" shape="1458.74,3064.14 1456.35,3063.13 1455.40,3060.98 1455.90,3057.69 1457.84,3053.26"/>
    </edge>
    <edge id=":enniskillen_2" function="internal">
        <lane id=":enniskillen_2_0" index="0" speed="5.80" length="9.31" shape="1450.75,3053.62 1452.70,3055.62 1454.54,3056.23 1456.25,3055.44 1457.84,3053.26"/>
    </edge>
    <edge id=":enniskillen_3" function="internal">
        <lane id=":enniskillen_3_0" index="0" speed="6.06" length="16.16" shape="1450.75,3053.62 1447.04,3048.84 1445.51,3047.41 1446.16,3049.34 1448.99,3054.61"/>
    </edge>
    <edge id=":galway_0" function="internal">
        <lane id=":galway_0_0" index="0" speed="3.92" length="2.35" shape="474.14,1740.19 473.75,1740.69 473.59,1741.21 473.66,1741.75 473.96,1742.30"/>
    </edge>
    <edge id=":kilkenny_0" function="internal">
        <lane id=":kilkenny_0_0" index="0" speed="4.68" length="7.73" shape="1689.02,970.92 1687.97,968.43 1687.11,967.65 1686.42,968.59 1685.91,971.25"/>
    </edge>
    <edge id=":letterkenny_0" function="internal">
        <lane id=":letterkenny_0_0" index="0" speed="10.00" length="16.26" shape="1352.53,3809.51 1348.89,3808.03 1345.35,3805.82 1342.14,3803.11 1339.50,3800.17"/>
    </edge>
    <edge id=":letterkenny_1" function="internal">
        <lane id=":letterkenny_1_0" index="0" speed="10.00" length="25.33" shape="1352.53,3809.51 1349.06,3807.20 1346.93,3802.60 1346.13,3795.73 1346.67,3786.57"/>
    </edge>
    <edge id=":letterkenny_2" function="internal">
        <lane id=":letterkenny_2_0" index="0" speed="10.00" length="24.23" shape="1352.53,3809.51 1349.19,3807.23 1347.74,3802.82 1348.19,3796.28 1350.54,3787.61"/>
    </edge>
    <edge id=":letterkenny_3" function="internal">
        <lane id=":letterkenny_3_0" index="0" speed="3.46" length="3.67" shape="1349.84,3787.30 1349.72,3788.68 1349.80,3789.20 1350.07,3788.84 1350.54,3787.61"/>
    </edge>
    <edge id=":letterkenny_4" function="internal">
        <lane id=":letterkenny_4_0" index="0" speed="7.80" length="21.61" shape="1349.84,3787.30 1348.55,3794.17 1346.36,3799.88 1343.32,3802.51 1339.50,3800.17"/>
    </edge>
    <edge id=":letterkenny_5" function="internal">
        <lane id=":letterkenny_5_0" index="0" speed="3.67" length="4.76" shape="1349.84,3787.30 1348.78,3788.31 1347.89,3788.52 1347.19,3787.94 1346.67,3786.57"/>
    </edge>
    <edge id=":limerick_0" function="internal">
        <lane id=":limerick_0_0" index="0" speed="4.16" length="1.32" shape="744.67,954.90 744.97,955.05 745.28,955.14 745.61,955.15 745.94,955.09"/>
    </edge>
    <edge id=":longford_0" function="internal">
        <lane id=":longford_0_0" index="0" speed="3.92" length="3.32" shape="1359.82,2315.31 1359.03,2315.87 1358.71,2316.49 1358.86,2317.17 1359.47,2317.92"/>
    </edge>
    <edge id=":monaghan_0" function="internal">
        <lane id=":monaghan_0_0" index="0" speed="10.00" length="38.79" shape="1843.42,2954.82 1838.94,2957.85 1832.15,2954.14 1823.97,2945.78 1815.33,2934.84"/>
    </edge>
    <edge id=":monaghan_1" function="internal">
        <lane id=":monaghan_1_0" index="0" speed="10.00" length="34.11" shape="1840.47,2953.57 1836.72,2955.90 1831.28,2951.81 1824.93,2943.44 1818.42,2932.91"/>
    </edge>
    <edge id=":monaghan_2" function="internal">
        <lane id=":monaghan_2_0" index="0" speed="4.56" length="8.21" shape="1817.46,2933.40 1819.40,2935.80 1820.21,2936.52 1819.88,2935.56 1818.42,2932.91"/>
    </edge>
    <edge id=":monaghan_3" function="internal">
        <lane id=":monaghan_3_0" index="0" speed="3.41" length="3.75" shape="1817.46,2933.40 1817.46,2934.56 1817.11,2935.18 1816.40,2935.27 1815.33,2934.84"/>
    </edge>
    <edge id=":monaghan_4" function="internal">
        <lane id=":monaghan_4_0" index="0" speed="7.40" length="22.31" shape="1820.66,2950.00 1824.01,2951.01 1824.23,2948.83 1821.34,2943.43 1815.33,2934.84"/>
    </edge>
    <edge id=":monaghan_5" function="internal">
        <lane id=":monaghan_5_0" index="0" speed="7.86" length="24.26" shape="1820.66,2950.00 1824.70,2951.16 1825.67,2948.70 1823.58,2942.62 1818.42,2932.91"/>
    </edge>
    <edge id=":naas_0" function="internal">
        <lane id=":naas_0_0" index="0" speed="5.48" length="10.63" shape="2074.75,1610.81 2077.91,1612.47 2079.66,1612.45 2079.98,1610.73 2078.89,1607.34"/>
    </edge>
    <edge id=":naas_1" function="internal">
        <lane id=":naas_1_0" index="0" speed="10.00" length="20.51" shape="2074.75,1610.81 2078.73,1613.19 2083.76,1615.83 2088.94,1618.06 2093.35,1619.23"/>
    </edge>
    <edge id=":naas_2" function="internal">
        <lane id=":naas_2_0" index="0" speed="10.00" length="25.39" shape="2074.75,1610.81 2080.29,1615.31 2083.85,1620.38 2085.45,1626.01 2085.07,1632.21"/>
    </edge>
    <edge id=":naas_3" function="internal">
        <lane id=":naas_3_0" index="0" speed="8.59" length="22.42" shape="2074.75,1610.81 2080.19,1615.34 2082.21,1619.66 2080.80,1623.78 2075.97,1627.70"/>
    </edge>
    <edge id=":naas_4" function="internal">
        <lane id=":naas_4_0" index="0" speed="9.91" length="20.17" shape="2074.36,1624.93 2078.25,1621.73 2080.30,1617.73 2080.52,1612.93 2078.89,1607.34"/>
    </edge>
    <edge id=":naas_5" function="internal">
        <lane id=":naas_5_0" index="0" speed="10.00" length="20.03" shape="2074.36,1624.93 2078.45,1622.90 2083.61,1620.92 2088.89,1619.53 2093.35,1619.23"/>
    </edge>
    <edge id=":naas_6" function="internal">
        <lane id=":naas_6_0" index="0" speed="7.65" length="20.13" shape="2074.36,1624.93 2080.26,1622.34 2084.01,1622.69 2085.61,1625.98 2085.07,1632.21"/>
    </edge>
    <edge id=":naas_7" function="internal">
        <lane id=":naas_7_0" index="0" speed="3.65" length="4.67" shape="2074.36,1624.93 2075.80,1625.02 2076.54,1625.51 2076.60,1626.40 2075.97,1627.70"/>
    </edge>
    <edge id=":naas_8" function="internal">
        <lane id=":naas_8_0" index="0" speed="5.43" length="9.88" shape="2080.52,1631.20 2081.21,1628.11 2080.68,1626.49 2078.93,1626.35 2075.97,1627.70"/>
    </edge>
    <edge id=":naas_9" function="internal">
        <lane id=":naas_9_0" index="0" speed="10.00" length="24.14" shape="2080.52,1631.20 2081.22,1626.12 2081.04,1619.22 2080.19,1612.34 2078.89,1607.34"/>
    </edge>
    <edge id=":naas_10" function="internal">
        <lane id=":naas_10_0" index="0" speed="9.99" length="19.03" shape="2080.52,1631.20 2082.96,1625.60 2085.92,1621.74 2089.38,1619.61 2093.35,1619.23"/>
    </edge>
    <edge id=":naas_11" function="internal">
        <lane id=":naas_11_0" index="0" speed="4.24" length="6.81" shape="2080.52,1631.20 2082.03,1629.75 2083.30,1629.43 2084.31,1630.25 2085.07,1632.21"/>
    </edge>
    <edge id=":navan_0" function="internal">
        <lane id=":navan_0_0" index="0" speed="10.00" length="8.09" shape="2085.85,2196.69 2088.89,2204.19"/>
    </edge>
    <edge id=":navan_1" function="internal">
        <lane id=":navan_1_0" index="0" speed="5.87" length="10.97" shape="2085.85,2196.69 2085.41,2198.58 2082.93,2199.79 2079.63,2200.26 2076.70,2199.98"/>
    </edge>
    <edge id=":navan_2" function="internal">
        <lane id=":navan_2_0" index="0" speed="5.73" length="9.19" shape="2078.54,2206.64 2080.12,2204.41 2080.34,2202.56 2079.20,2201.08 2076.70,2199.98"/>
    </edge>
    <edge id=":navan_3" function="internal">
        <lane id=":navan_3_0" index="0" speed="6.39" length="11.76" shape="2078.54,2206.64 2081.02,2204.73 2084.19,2203.29 2087.13,2202.91 2088.89,2204.19"/>
    </edge>
    <edge id=":omagh_0" function="internal">
        <lane id=":omagh_0_0" index="0" speed="7.35" length="11.70" shape="1617.21,3362.59 1613.36,3362.25 1610.60,3361.22 1608.93,3359.49 1608.35,3357.08"/>
    </edge>
    <edge id=":omagh_1" function="internal">
        <lane id=":omagh_1_0" index="0" speed="9.34" length="42.31" shape="1611.28,3357.03 1609.81,3341.24 1608.83,3335.99 1608.34,3341.26 1608.35,3357.08"/>
    </edge>
    <edge id=":portlaoise_0" function="internal">
        <lane id=":portlaoise_0_0" index="0" speed="10.00" length="71.86" shape="1684.28,1364.95 1689.48,1364.78 1703.23,1371.56 1723.16,1383.43 1746.90,1398.52"/>
    </edge>
    <edge id=":portlaoise_1" function="internal">
        <lane id=":portlaoise_1_0" index="0" speed="10.00" length="71.60" shape="1684.28,1364.95 1689.35,1364.95 1702.72,1372.36 1722.05,1385.16 1744.99,1401.33"/>
    </edge>
    <edge id=":roscommon_0" function="internal">
        <lane id=":roscommon_0_0" index="0" speed="5.83" length="10.89" shape="1050.94,2229.35 1047.52,2227.81 1046.04,2226.15 1046.50,2224.36 1048.91,2222.45"/>
    </edge>
    <edge id=":roscommon_1" function="internal">
        <lane id=":roscommon_1_0" index="0" speed="3.65" length="4.67" shape="1050.52,2225.22 1049.08,2225.13 1048.33,2224.64 1048.27,2223.75 1048.91,2222.45"/>
    </edge>
    <edge id=":sligo_0" function="internal">
        <lane id=":sligo_0_0" index="0" speed="8.82" length="13.92" shape="884.79,2959.84 880.25,2958.38 876.99,2956.60 875.01,2954.48 874.32,2952.03"/>
    </edge>
    <edge id=":sligo_1" function="internal">
        <lane id=":sligo_1_0" index="0" speed="6.77" length="12.57" shape="884.40,2954.34 880.04,2955.70 876.90,2955.77 875.00,2954.55 874.32,2952.03"/>
    </edge>
    <edge id=":tralee_0" function="internal">
        <lane id=":tralee_0_0" index="0" speed="8.72" length="31.12" shape="13.27,512.75 7.66,502.43 3.20,493.05 1.51,487.03 4.24,486.79"/>
    </edge>
    <edge id=":tralee_1" function="internal">
        <lane id=":tralee_1_0" index="0" speed="8.61" length="31.84" shape="16.36,510.74 9.47,501.15 3.64,492.17 1.14,486.48 4.24,486.79"/>
    </edge>
    <edge id=":tullamore_0" function="internal">
        <lane id=":tullamore_0_0" index="0" speed="10.00" length="44.50" shape="1588.87,1763.71 1587.08,1749.25 1582.14,1741.50 1574.06,1740.47 1562.83,1746.16"/>
    </edge>
    <edge id=":tullamore_1" function="internal">
        <lane id=":tullamore_1_0" index="0" speed="10.00" length="46.59" shape="1588.87,1763.71 1586.96,1748.92 1581.66,1740.56 1572.97,1738.61 1560.90,1743.10"/>
    </edge>
    <edge id=":tullamore_2" function="internal">
        <lane id=":tullamore_2_0" index="0" speed="10.00" length="51.27" shape="1588.87,1763.71 1589.44,1754.27 1590.94,1738.05 1592.89,1721.95 1594.85,1712.85"/>
    </edge>
    <edge id=":tullamore_3" function="internal">
        <lane id=":tullamore_3_0" index="0" speed="10.00" length="46.33" shape="1592.43,1763.50 1589.18,1749.06 1583.16,1741.36 1574.38,1740.39 1562.83,1746.16"/>
    </edge>
    <edge id=":tullamore_4" function="internal">
        <lane id=":tullamore_4_0" index="0" speed="10.00" length="48.37" shape="1592.43,1763.50 1589.05,1748.76 1582.67,1740.44 1573.28,1738.55 1560.90,1743.10"/>
    </edge>
    <edge id=":tullamore_5" function="internal">
        <lane id=":tullamore_5_0" index="0" speed="10.00" length="50.79" shape="1592.43,1763.50 1592.25,1754.11 1592.54,1737.96 1593.38,1721.92 1594.85,1712.85"/>
    </edge>
    <edge id=":tullamore_6" function="internal">
        <lane id=":tullamore_6_0" index="0" speed="5.46" length="10.12" shape="1589.23,1711.94 1590.15,1715.13 1591.40,1716.35 1592.97,1715.59 1594.85,1712.85"/>
    </edge>
    <edge id=":tullamore_7" function="internal">
        <lane id=":tullamore_7_0" index="0" speed="10.00" length="44.98" shape="1589.23,1711.94 1588.53,1719.25 1583.89,1727.38 1575.33,1736.35 1562.83,1746.16"/>
    </edge>
    <edge id=":tullamore_8" function="internal">