<?xml version="1.0" encoding="UTF-8"?>

<!-- generated on 2024-09-30 18:12:36 by Eclipse SUMO netconvert Version 1.19.0
<configuration xmlns:xsi="http://www.w3.org/2001/XMLSchema-instance" xsi:noNamespaceSchemaLocation="http://sumo.dlr.de/xsd/netconvertConfiguration.xsd">

    <input>
        <node-files value="nod.xml"/>
        <edge-files value="edge_xmls/00008.xml"/>
    </input>

    <output>
        <output-file value="networks/00008.net.xml"/>
    </output>

</configuration>
-->

<net version="1.16" junctionCornerDetail="5" limitTurnSpeed="5.50" xmlns:xsi="http://www.w3.org/2001/XMLSchema-instance" xsi:noNamespaceSchemaLocation="http://sumo.dlr.de/xsd/net_file.xsd">

    <location netOffset="-682.00,4368.00" convBoundary="0.00,0.00,2498.00,3881.00" origBoundary="682.00,-4368.00,3180.00,-487.00" projParameter="!"/>

    <edge id=":antrim_0" function="internal">
        <lane id=":antrim_0_0" index="0" speed="4.47" length="7.18" shape="2281.43,3473.76 2282.52,3476.00 2283.25,3476.62 2283.62,3475.60 2283.63,3472.95"/>
    </edge>
    <edge id=":antrim_1" function="internal">
        <lane id=":antrim_1_0" index="0" speed="7.14" length="18.45" shape="2281.43,3473.76 2282.07,3478.74 2280.09,3482.51 2276.28,3484.30 2271.43,3483.31"/>
    </edge>
    <edge id=":antrim_2" function="internal">
        <lane id=":antrim_2_0" index="0" speed="3.65" length="4.68" shape="2281.43,3473.76 2281.09,3475.16 2280.47,3475.81 2279.58,3475.71 2278.42,3474.85"/>
    </edge>
    <edge id=":antrim_3" function="internal">
        <lane id=":antrim_3_0" index="0" speed="3.54" length="3.88" shape="2277.50,3475.19 2278.43,3476.31 2278.89,3476.63 2278.89,3476.14 2278.42,3474.85"/>
    </edge>
    <edge id=":antrim_4" function="internal">
        <lane id=":antrim_4_0" index="0" speed="5.93" length="12.71" shape="2277.50,3475.19 2280.38,3478.33 2282.36,3479.00 2283.45,3477.21 2283.63,3472.95"/>
    </edge>
    <edge id=":antrim_5" function="internal">
        <lane id=":antrim_5_0" index="0" speed="5.98" length="13.89" shape="2277.50,3475.19 2278.69,3478.71 2277.62,3481.90 2274.97,3483.76 2271.43,3483.31"/>
    </edge>
    <edge id=":antrim_6" function="internal">
        <lane id=":antrim_6_0" index="0" speed="5.49" length="11.07" shape="2274.41,3477.90 2277.58,3479.99 2279.31,3480.18 2279.59,3478.47 2278.42,3474.85"/>
    </edge>
    <edge id=":antrim_7" function="internal">
        <lane id=":antrim_7_0" index="0" speed="6.92" length="15.99" shape="2274.41,3477.90 2278.67,3480.47 2281.63,3480.51 2283.28,3478.00 2283.63,3472.95"/>
    </edge>
    <edge id=":antrim_8" function="internal">
        <lane id=":antrim_8_0" index="0" speed="4.78" length="9.03" shape="2274.41,3477.90 2275.69,3480.37 2275.62,3482.10 2274.20,3483.08 2271.43,3483.31"/>
    </edge>
    <edge id=":athlone_0" function="internal">
        <lane id=":athlone_0_0" index="0" speed="4.18" length="1.29" shape="1258.09,1960.83 1257.93,1961.11 1257.83,1961.41 1257.79,1961.72 1257.82,1962.05"/>
    </edge>
    <edge id=":belfast_0" function="internal">
        <lane id=":belfast_0_0" index="0" speed="6.78" length="15.62" shape="2497.33,3350.21 2498.05,3355.55 2497.15,3358.55 2494.62,3359.20 2490.47,3357.52"/>
    </edge>
    <edge id=":belfast_1" function="internal">
        <lane id=":belfast_1_0" index="0" speed="5.84" length="11.26" shape="2497.33,3350.21 2496.98,3352.92 2495.28,3355.62 2492.90,3357.42 2490.55,3357.37"/>
    </edge>
    <edge id=":belfast_2" function="internal">
        <lane id=":belfast_2_0" index="0" speed="7.46" length="25.70" shape="2497.33,3350.21 2495.82,3344.84 2495.24,3345.46 2495.61,3352.06 2496.92,3364.66"/>
    </edge>
    <edge id=":belfast_3" function="internal">
        <lane id=":belfast_3_0" index="0" speed="5.98" length="12.34" shape="2492.93,3353.20 2494.30,3354.94 2495.42,3357.43 2496.30,3360.67 2496.92,3364.66"/>
    </edge>
    <edge id=":belfast_4" function="internal">
        <lane id=":belfast_4_0" index="0" speed="4.33" length="6.94" shape="2492.93,3353.20 2493.74,3354.85 2493.36,3356.57 2492.15,3357.68 2490.47,3357.52"/>
    </edge>
    <edge id=":belfast_5" function="internal">
        <lane id=":belfast_5_0" index="0" speed="4.33" length="7.01" shape="2492.93,3353.20 2493.90,3355.13 2493.82,3356.47 2492.71,3357.22 2490.55,3357.37"/>
    </edge>
    <edge id=":belfast_6" function="internal">
        <lane id=":belfast_6_0" index="0" speed="5.92" length="11.71" shape="2500.59,3363.34 2499.24,3362.91 2495.95,3360.98 2492.45,3358.77 2490.47,3357.52"/>
    </edge>
    <edge id=":belfast_7" function="internal">
        <lane id=":belfast_7_0" index="0" speed="5.90" length="11.72" shape="2500.59,3363.34 2499.25,3362.89 2495.99,3360.91 2492.52,3358.66 2490.55,3357.37"/>
    </edge>
    <edge id=":belfast_8" function="internal">
        <lane id=":belfast_8_0" index="0" speed="7.40" length="24.93" shape="2500.59,3363.34 2497.92,3354.64 2496.43,3351.96 2496.09,3355.29 2496.92,3364.66"/>
    </edge>
    <edge id=":belfast_9" function="internal">
        <lane id=":belfast_9_0" index="0" speed="5.88" length="11.88" shape="2500.82,3363.26 2499.46,3362.83 2496.09,3360.93 2492.50,3358.76 2490.47,3357.52"/>
    </edge>
    <edge id=":belfast_10" function="internal">
        <lane id=":belfast_10_0" index="0" speed="5.85" length="11.87" shape="2500.82,3363.26 2499.48,3362.81 2496.13,3360.86 2492.56,3358.64 2490.55,3357.37"/>
    </edge>
    <edge id=":belfast_11" function="internal">
        <lane id=":belfast_11_0" index="0" speed="6.64" length="19.21" shape="2500.82,3363.26 2498.31,3356.80 2496.82,3354.87 2496.36,3357.49 2496.92,3364.66"/>
    </edge>
    <edge id=":bray_0" function="internal">
        <lane id=":bray_0_0" index="0" speed="5.49" length="10.83" shape="2431.76,1656.06 2435.39,1656.58 2437.04,1655.98 2436.69,1654.26 2434.36,1651.43"/>
    </edge>
    <edge id=":bray_1" function="internal">
        <lane id=":bray_1_0" index="0" speed="9.12" length="22.04" shape="2431.76,1656.06 2437.28,1658.23 2442.72,1661.85 2446.47,1666.05 2446.94,1669.98"/>
    </edge>
    <edge id=":bray_2" function="internal">
        <lane id=":bray_2_0" index="0" speed="5.02" length="9.90" shape="2431.76,1656.06 2433.94,1657.53 2434.66,1659.90 2433.92,1662.13 2431.70,1663.18"/>
    </edge>
    <edge id=":bray_3" function="internal">
        <lane id=":bray_3_0" index="0" speed="6.60" length="14.33" shape="2431.59,1660.47 2435.84,1659.60 2437.71,1657.81 2437.22,1655.08 2434.36,1651.43"/>
    </edge>
    <edge id=":bray_4" function="internal">
        <lane id=":bray_4_0" index="0" speed="7.36" length="16.65" shape="2431.59,1660.47 2435.93,1660.96 2440.50,1662.71 2443.73,1665.37 2444.06,1668.56"/>
    </edge>
    <edge id=":bray_5" function="internal">
        <lane id=":bray_5_0" index="0" speed="3.47" length="3.96" shape="2431.59,1660.47 2432.64,1661.11 2433.00,1661.77 2432.69,1662.46 2431.70,1663.18"/>
    </edge>
    <edge id=":carlow_0" function="internal">
        <lane id=":carlow_0_0" index="0" speed="2.76" length="1.58" shape="1885.85,1164.71 1885.94,1165.29 1886.01,1165.49 1886.06,1165.30 1886.09,1164.72"/>
    </edge>
    <edge id=":carlow_1" function="internal">
        <lane id=":carlow_1_0" index="0" speed="5.94" length="13.05" shape="1885.85,1164.71 1884.85,1159.59 1883.58,1157.19 1882.02,1157.50 1880.18,1160.51"/>
    </edge>
    <edge id=":carlow_2" function="internal">
        <lane id=":carlow_2_0" index="0" speed="10.00" length="19.72" shape="1885.85,1164.71 1884.64,1156.97 1883.34,1151.29 1881.93,1147.67 1880.43,1146.09"/>
    </edge>
    <edge id=":carlow_3" function="internal">
        <lane id=":carlow_3_0" index="0" speed="4.63" length="8.51" shape="1885.85,1164.71 1886.99,1162.34 1888.33,1161.42 1889.87,1161.94 1891.62,1163.90"/>
    </edge>
    <edge id=":carlow_4" function="internal">
        <lane id=":carlow_4_0" index="0" speed="3.92" length="5.46" shape="1890.93,1164.08 1891.77,1165.95 1892.16,1166.54 1892.11,1165.86 1891.62,1163.90"/>
    </edge>
    <edge id=":carlow_5" function="internal">
        <lane id=":carlow_5_0" index="0" speed="5.69" length="12.45" shape="1890.93,1164.08 1888.93,1160.11 1887.46,1158.90 1886.51,1160.43 1886.09,1164.72"/>
    </edge>
    <edge id=":carlow_6" function="internal">
        <lane id=":carlow_6_0" index="0" speed="7.08" length="17.06" shape="1890.93,1164.08 1888.02,1158.57 1885.25,1156.14 1882.64,1156.79 1880.18,1160.51"/>
    </edge>
    <edge id=":carlow_7" function="internal">
        <lane id=":carlow_7_0" index="0" speed="10.00" length="21.04" shape="1890.93,1164.08 1887.60,1156.65 1884.74,1151.18 1882.35,1147.66 1880.43,1146.09"/>
    </edge>
    <edge id=":carlow_8" function="internal">
        <lane id=":carlow_8_0" index="0" speed="10.00" length="23.52" shape="1883.20,1142.09 1885.86,1146.27 1888.27,1152.48 1890.25,1158.94 1891.62,1163.90"/>
    </edge>
    <edge id=":carlow_9" function="internal">
        <lane id=":carlow_9_0" index="0" speed="10.00" length="23.13" shape="1883.20,1142.09 1884.66,1144.72 1885.63,1149.37 1886.11,1156.03 1886.09,1164.72"/>
    </edge>
    <edge id=":carlow_10" function="internal">
        <lane id=":carlow_10_0" index="0" speed="10.00" length="19.42" shape="1883.20,1142.09 1884.41,1144.56 1884.31,1148.46 1882.90,1153.78 1880.18,1160.51"/>
    </edge>
    <edge id=":carlow_11" function="internal">
        <lane id=":carlow_11_0" index="0" speed="5.71" length="12.58" shape="1883.20,1142.09 1886.14,1145.29 1886.66,1147.03 1884.76,1147.30 1880.43,1146.09"/>
    </edge>
    <edge id=":carrick_0" function="internal">
        <lane id=":carrick_0_0" index="0" speed="5.47" length="9.78" shape="1122.40,2569.56 1124.03,2572.24 1125.58,2573.08 1127.02,2572.08 1128.36,2569.25"/>
    </edge>
    <edge id=":carrick_1" function="internal">
        <lane id=":carrick_1_0" index="0" speed="10.00" length="14.96" shape="1122.40,2569.56 1123.95,2573.02 1125.59,2576.43 1127.56,2579.57 1130.14,2582.21"/>
    </edge>
    <edge id=":carrick_2" function="internal">
        <lane id=":carrick_2_0" index="0" speed="3.65" length="4.67" shape="1122.40,2569.56 1122.18,2570.99 1121.63,2571.69 1120.73,2571.67 1119.50,2570.93"/>
    </edge>
    <edge id=":carrick_3" function="internal">
        <lane id=":carrick_3_0" index="0" speed="10.00" length="14.66" shape="1121.45,2584.94 1122.35,2582.54 1122.32,2579.40 1121.37,2575.53 1119.50,2570.93"/>
    </edge>
    <edge id=":carrick_4" function="internal">
        <lane id=":carrick_4_0" index="0" speed="10.00" length="17.19" shape="1121.45,2584.94 1123.47,2581.40 1125.33,2577.31 1126.98,2573.11 1128.36,2569.25"/>
    </edge>
    <edge id=":carrick_5" function="internal">
        <lane id=":carrick_5_0" index="0" speed="6.79" length="10.51" shape="1121.45,2584.94 1123.56,2582.42 1125.71,2581.12 1127.90,2581.05 1130.14,2582.21"/>
    </edge>
    <edge id=":castlebar_0" function="internal">
        <lane id=":castlebar_0_0" index="0" speed="3.65" length="4.67" shape="299.08,2447.31 298.56,2445.97 298.69,2445.08 299.47,2444.66 300.92,2444.69"/>
    </edge>
    <edge id=":cavan_0" function="internal">
        <lane id=":cavan_0_0" index="0" speed="8.93" length="5.82" shape="1686.27,2636.62 1682.84,2631.92"/>
    </edge>
    <edge id=":cavan_1" function="internal">
        <lane id=":cavan_1_0" index="0" speed="3.65" length="4.67" shape="1685.94,2632.73 1684.86,2633.69 1683.98,2633.87 1683.31,2633.28 1682.84,2631.92"/>
    </edge>
    <edge id=":clonmel_0" function="internal">
        <lane id=":clonmel_0_0" index="0" speed="4.30" length="5.80" shape="1387.55,619.76 1386.61,618.07 1385.79,617.56 1385.09,618.23 1384.52,620.08"/>
    </edge>
    <edge id=":cork_0" function="internal">
        <lane id=":cork_0_0" index="0" speed="5.22" length="10.55" shape="824.05,17.11 821.84,14.04 820.58,13.24 820.28,14.70 820.94,18.43"/>
    </edge>
    <edge id=":cork_1" function="internal">
        <lane id=":cork_1_0" index="0" speed="6.37" length="15.37" shape="827.34,14.85 823.38,11.45 821.00,10.91 820.18,13.24 820.94,18.43"/>
    </edge>
    <edge id=":craigavon_0" function="internal">
        <lane id=":craigavon_0_0" index="0" speed="8.19" length="14.51" shape="2153.63,3172.98 2151.33,3168.31 2148.94,3165.26 2146.47,3163.81 2143.92,3163.97"/>
    </edge>
    <edge id=":craigavon_1" function="internal">
        <lane id=":craigavon_1_0" index="0" speed="10.00" length="30.50" shape="2153.63,3172.98 2150.16,3167.96 2144.06,3161.22 2137.53,3154.85 2132.76,3150.92"/>
    </edge>
    <edge id=":craigavon_2" function="internal">
        <lane id=":craigavon_2_0" index="0" speed="10.00" length="31.98" shape="2153.63,3172.98 2151.73,3166.88 2149.35,3157.59 2147.21,3148.24 2146.01,3141.95"/>
    </edge>
    <edge id=":craigavon_3" function="internal">
        <lane id=":craigavon_3_0" index="0" speed="3.65" length="4.67" shape="2153.63,3172.98 2153.92,3171.57 2154.50,3170.89 2155.39,3170.96 2156.59,3171.76"/>
    </edge>
    <edge id=":craigavon_4" function="internal">
        <lane id=":craigavon_4_0" index="0" speed="5.46" length="10.26" shape="2160.81,3168.06 2157.72,3166.66 2155.99,3166.82 2155.61,3168.51 2156.59,3171.76"/>
    </edge>
    <edge id=":craigavon_5" function="internal">
        <lane id=":craigavon_5_0" index="0" speed="10.00" length="17.86" shape="2160.81,3168.06 2155.64,3165.44 2151.11,3163.89 2147.20,3163.40 2143.92,3163.97"/>
    </edge>
    <edge id=":craigavon_6" function="internal">
        <lane id=":craigavon_6_0" index="0" speed="10.00" length="32.87" shape="2160.81,3168.06 2132.76,3150.92"/>
    </edge>
    <edge id=":craigavon_7" function="internal">
        <lane id=":craigavon_7_0" index="0" speed="10.00" length="31.08" shape="2160.81,3168.06 2155.27,3163.78 2150.96,3158.00 2147.88,3150.72 2146.01,3141.95"/>
    </edge>
    <edge id=":craigavon_8" function="internal">
        <lane id=":craigavon_8_0" index="0" speed="5.65" length="12.22" shape="2141.45,3143.61 2143.99,3147.05 2145.60,3147.92 2146.27,3146.22 2146.01,3141.95"/>
    </edge>
    <edge id=":craigavon_9" function="internal">
        <lane id=":craigavon_9_0" index="0" speed="10.00" length="31.97" shape="2141.45,3143.61 2144.68,3149.14 2149.31,3157.53 2153.80,3166.00 2156.59,3171.76"/>
    </edge>
    <edge id=":craigavon_10" function="internal">
        <lane id=":craigavon_10_0" index="0" speed="9.44" length="23.43" shape="2141.45,3143.61 2145.41,3150.48 2147.63,3156.41 2147.38,3161.03 2143.92,3163.97"/>
    </edge>
    <edge id=":craigavon_11" function="internal">
        <lane id=":craigavon_11_0" index="0" speed="6.28" length="15.56" shape="2141.45,3143.61 2142.27,3147.47 2140.37,3150.53 2136.84,3151.95 2132.76,3150.92"/>
    </edge>
    <edge id=":craigavon_12" function="internal">
        <lane id=":craigavon_12_0" index="0" speed="7.15" length="18.17" shape="2135.99,3146.06 2141.07,3149.57 2144.44,3150.06 2146.08,3147.52 2146.01,3141.95"/>
    </edge>
    <edge id=":craigavon_13" function="internal">
        <lane id=":craigavon_13_0" index="0" speed="10.00" length="33.01" shape="2135.99,3146.06 2140.55,3150.79 2147.00,3158.39 2153.10,3166.25 2156.59,3171.76"/>
    </edge>
    <edge id=":craigavon_14" function="internal">
        <lane id=":craigavon_14_0" index="0" speed="8.67" length="23.42" shape="2135.99,3146.06 2141.81,3151.42 2145.94,3156.58 2147.08,3160.96 2143.92,3163.97"/>
    </edge>
    <edge id=":craigavon_15" function="internal">
        <lane id=":craigavon_15_0" index="0" speed="4.63" length="8.51" shape="2135.99,3146.06 2137.00,3148.48 2136.80,3150.10 2135.39,3150.91 2132.76,3150.92"/>
    </edge>
    <edge id=":craigavon_16" function="internal">
        <lane id=":craigavon_16_0" index="0" speed="5.70" length="12.65" shape="2131.04,3155.34 2135.49,3155.76 2137.26,3155.16 2136.35,3153.55 2132.76,3150.92"/>
    </edge>
    <edge id=":craigavon_17" function="internal">
        <lane id=":craigavon_17_0" index="0" speed="9.48" length="24.82" shape="2131.04,3155.34 2138.39,3155.53 2143.33,3153.36 2145.87,3148.84 2146.01,3141.95"/>
    </edge>
    <edge id=":craigavon_18" function="internal">
        <lane id=":craigavon_18_0" index="0" speed="10.00" length="31.72" shape="2131.04,3155.34 2140.18,3157.58 2147.48,3161.06 2152.95,3165.78 2156.59,3171.76"/>
    </edge>
    <edge id=":craigavon_19" function="internal">
        <lane id=":craigavon_19_0" index="0" speed="7.22" length="20.52" shape="2131.04,3155.34 2137.78,3156.84 2143.69,3159.04 2146.50,3161.55 2143.92,3163.97"/>
    </edge>
    <edge id=":derry_0" function="internal">
        <lane id=":derry_0_0" index="0" speed="5.05" length="10.12" shape="1616.59,3864.87 1615.06,3866.97 1612.62,3867.47 1610.36,3866.48 1609.37,3864.11"/>
    </edge>
    <edge id=":derry_1" function="internal">
        <lane id=":derry_1_0" index="0" speed="3.65" length="4.67" shape="1616.59,3864.87 1615.52,3865.85 1614.65,3866.05 1613.97,3865.47 1613.48,3864.12"/>
    </edge>
    <edge id=":derry_2" function="internal">
        <lane id=":derry_2_0" index="0" speed="9.18" length="40.98" shape="1615.68,3864.65 1618.35,3849.52 1618.88,3844.39 1617.25,3849.26 1613.48,3864.12"/>
    </edge>
    <edge id=":derry_3" function="internal">
        <lane id=":derry_3_0" index="0" speed="4.83" length="9.25" shape="1615.68,3864.65 1613.89,3866.88 1612.25,3867.53 1610.74,3866.61 1609.37,3864.11"/>
    </edge>
    <edge id=":derry_4" function="internal">
        <lane id=":derry_4_0" index="0" speed="10.00" length="0.10" shape="1609.41,3864.09 1609.37,3864.11"/>
    </edge>
    <edge id=":derry_5" function="internal">
        <lane id=":derry_5_0" index="0" speed="5.27" length="10.41" shape="1609.41,3864.09 1610.33,3867.61 1611.32,3868.79 1612.37,3867.62 1613.48,3864.12"/>
    </edge>
    <edge id=":derry_6" function="internal">
        <lane id=":derry_6_0" index="0" speed="10.00" length="0.74" shape="1609.50,3864.07 1609.44,3863.81 1609.40,3863.73 1609.38,3863.83 1609.37,3864.11"/>
    </edge>
    <edge id=":derry_7" function="internal">
        <lane id=":derry_7_0" index="0" speed="5.24" length="10.30" shape="1609.50,3864.07 1610.39,3867.56 1611.35,3868.73 1612.38,3867.58 1613.48,3864.12"/>
    </edge>
    <edge id=":derry_8" function="internal">
        <lane id=":derry_8_0" index="0" speed="5.75" length="11.50" shape="1606.02,3872.16 1607.49,3873.25 1608.54,3872.27 1609.17,3869.22 1609.37,3864.11"/>
    </edge>
    <edge id=":derry_9" function="internal">
        <lane id=":derry_9_0" index="0" speed="6.60" length="14.03" shape="1606.02,3872.16 1608.06,3873.64 1609.98,3872.79 1611.79,3869.62 1613.48,3864.12"/>
    </edge>
    <edge id=":dublin_0" function="internal">
        <lane id=":dublin_0_0" index="0" speed="7.22" length="4.34" shape="2320.74,1820.05 2320.55,1818.79 2320.26,1817.94 2319.71,1817.23 2318.76,1816.38"/>
    </edge>
    <edge id=":dublin_1" function="internal">
        <lane id=":dublin_1_0" index="0" speed="3.65" length="4.67" shape="2320.81,1813.92 2321.22,1815.31 2321.02,1816.18 2320.20,1816.54 2318.76,1816.38"/>
    </edge>
    <edge id=":dundalk_0" function="internal">
        <lane id=":dundalk_0_0" index="0" speed="7.97" length="8.56" shape="2243.66,2635.50 2243.29,2633.40 2242.40,2631.58 2240.98,2630.05 2239.03,2628.80"/>
    </edge>
    <edge id=":dundalk_1" function="internal">
        <lane id=":dundalk_1_0" index="0" speed="10.00" length="11.29" shape="2240.13,2626.59 2242.93,2627.86 2245.19,2629.53 2246.91,2631.59 2248.09,2634.04"/>
    </edge>
    <edge id=":dundalk_2" function="internal">
        <lane id=":dundalk_2_0" index="0" speed="6.64" length="19.86" shape="2240.13,2626.59 2233.07,2624.26 2230.54,2623.85 2232.52,2625.36 2239.03,2628.80"/>
    </edge>
    <edge id=":ennis_0" function="internal">
        <lane id=":ennis_0_0" index="0" speed="3.63" length="4.26" shape="483.05,1216.26 483.76,1217.64 484.14,1218.04 484.18,1217.47 483.88,1215.91"/>
    </edge>
    <edge id=":ennis_1" function="internal">
        <lane id=":ennis_1_0" index="0" speed="7.40" length="18.06" shape="483.05,1216.26 481.32,1210.96 482.04,1207.63 485.20,1206.26 490.81,1206.86"/>
    </edge>
    <edge id=":ennis_2" function="internal">
        <lane id=":ennis_2_0" index="0" speed="3.65" length="4.68" shape="483.05,1216.26 483.33,1214.84 483.92,1214.17 484.81,1214.23 486.01,1215.03"/>
    </edge>
    <edge id=":ennis_3" function="internal">
        <lane id=":ennis_3_0" index="0" speed="5.51" length="9.43" shape="490.02,1210.24 487.10,1209.85 485.46,1210.52 485.09,1212.24 486.01,1215.03"/>
    </edge>
    <edge id=":ennis_4" function="internal">
        <lane id=":ennis_4_0" index="0" speed="6.23" length="11.14" shape="490.02,1210.24 486.68,1209.83 484.55,1210.64 483.61,1212.67 483.88,1215.91"/>
    </edge>
    <edge id=":ennis_5" function="internal">
        <lane id=":ennis_5_0" index="0" speed="3.76" length="5.06" shape="490.02,1210.24 488.95,1209.10 488.73,1208.16 489.35,1207.41 490.81,1206.86"/>
    </edge>
    <edge id=":enniskillen_0" function="internal">
        <lane id=":enniskillen_0_0" index="0" speed="5.62" length="11.18" shape="1466.74,3069.83 1463.53,3068.60 1461.90,3069.00 1461.86,3071.05 1463.41,3074.75"/>
    </edge>
    <edge id=":enniskillen_1" function="internal">
        <lane id=":enniskillen_1_0" index="0" speed="6.67" length="14.40" shape="1466.74,3069.83 1462.70,3068.39 1460.11,3068.96 1458.99,3071.55 1459.33,3076.16"/>
    </edge>
    <edge id=":enniskillen_2" function="internal">
        <lane id=":enniskillen_2_0" index="0" speed="9.91" length="21.24" shape="1466.74,3069.83 1460.96,3066.15 1457.40,3062.18 1456.09,3057.94 1457.01,3053.42"/>
    </edge>
    <edge id=":enniskillen_3" function="internal">
        <lane id=":enniskillen_3_0" index="0" speed="10.00" length="20.95" shape="1459.94,3054.70 1458.97,3058.67 1459.22,3063.33 1460.70,3068.69 1463.41,3074.75"/>
    </edge>
    <edge id=":enniskillen_4" function="internal">
        <lane id=":enniskillen_4_0" index="0" speed="10.00" length="21.64" shape="1459.94,3054.70 1458.87,3059.29 1458.53,3065.31 1458.75,3071.38 1459.33,3076.16"/>
    </edge>
    <edge id=":enniskillen_5" function="internal">
        <lane id=":enniskillen_5_0" index="0" speed="3.65" length="4.67" shape="1459.94,3054.70 1458.73,3055.48 1457.83,3055.52 1457.26,3054.84 1457.01,3053.42"/>
    </edge>
    <edge id=":galway_0" function="internal">
        <lane id=":galway_0_0" index="0" speed="3.29" length="3.10" shape="479.60,1747.10 480.63,1747.57 481.04,1747.63 480.83,1747.27 479.99,1746.51"/>
    </edge>
    <edge id=":galway_1" function="internal">
        <lane id=":galway_1_0" index="0" speed="4.82" length="7.31" shape="480.84,1742.20 478.66,1742.56 477.80,1743.39 478.24,1744.71 479.99,1746.51"/>
    </edge>
    <edge id=":kilkenny_0" function="internal">
        <lane id=":kilkenny_0_0" index="0" speed="8.14" length="8.96" shape="1688.99,951.70 1688.68,954.00 1688.98,956.14 1689.87,958.10 1691.36,959.88"/>
    </edge>
    <edge id=":kilkenny_1" function="internal">
        <lane id=":kilkenny_1_0" index="0" speed="10.00" length="57.42" shape="1688.99,951.70 1684.93,961.22 1677.04,977.76 1668.95,994.24 1664.32,1003.54"/>
    </edge>
    <edge id=":kilkenny_2" function="internal">
        <lane id=":kilkenny_2_0" index="0" speed="10.00" length="53.31" shape="1661.46,1002.10 1670.91,984.03 1679.45,969.64 1686.46,960.93 1691.36,959.88"/>
    </edge>
    <edge id=":kilkenny_3" function="internal">
        <lane id=":kilkenny_3_0" index="0" speed="3.65" length="4.67" shape="1661.46,1002.10 1662.72,1001.39 1663.61,1001.39 1664.15,1002.11 1664.32,1003.54"/>
    </edge>
    <edge id=":kilkenny_4" function="internal">
        <lane id=":kilkenny_4_0" index="0" speed="7.77" length="27.93" shape="1667.76,1004.99 1670.92,995.10 1671.41,991.56 1669.21,994.37 1664.32,1003.54"/>
    </edge>
    <edge id=":kilkenny_5" function="internal">
        <lane id=":kilkenny_5_0" index="0" speed="10.00" length="52.65" shape="1667.76,1004.99 1674.63,985.99 1681.12,970.61 1686.84,961.15 1691.36,959.88"/>
    </edge>
    <edge id=":letterkenny_0" function="internal">
        <lane id=":letterkenny_0_0" index="0" speed="3.79" length="4.60" shape="1347.58,3806.22 1346.84,3807.43 1346.06,3807.85 1345.26,3807.48 1344.43,3806.33"/>
    </edge>
    <edge id=":limerick_0" function="internal">
        <lane id=":limerick_0_0" index="0" speed="8.76" length="33.15" shape="752.42,999.91 751.20,988.84 751.86,978.52 754.44,972.91 759.00,975.97"/>
    </edge>
    <edge id=":limerick_1" function="internal">
        <lane id=":limerick_1_0" index="0" speed="6.35" length="17.41" shape="752.42,999.91 753.26,995.54 756.72,993.00 760.98,992.92 764.22,995.91"/>
    </edge>
    <edge id=":limerick_2" function="internal">
        <lane id=":limerick_2_0" index="0" speed="5.59" length="13.37" shape="752.42,999.91 753.54,995.94 755.37,994.15 757.90,994.53 761.13,997.10"/>
    </edge>
    <edge id=":longford_0" function="internal">
        <lane id=":longford_0_0" index="0" speed="5.77" length="13.09" shape="1364.89,2298.05 1363.24,2302.39 1363.32,2304.29 1365.14,2303.74 1368.70,2300.75"/>
    </edge>
    <edge id=":longford_1" function="internal">
        <lane id=":longford_1_0" index="0" speed="7.53" length="17.96" shape="1364.89,2298.05 1362.22,2304.93 1361.40,2309.68 1362.45,2312.28 1365.35,2312.75"/>
    </edge>
    <edge id=":longford_2" function="internal">
        <lane id=":longford_2_0" index="0" speed="9.82" length="23.35" shape="1364.89,2298.05 1362.13,2305.71 1361.57,2311.68 1363.20,2315.96 1367.04,2318.55"/>
    </edge>
    <edge id=":longford_3" function="internal">
        <lane id=":longford_3_0" index="0" speed="10.00" length="26.14" shape="1364.89,2298.05 1361.89,2306.16 1360.84,2312.96 1361.75,2318.44 1364.61,2322.61"/>
    </edge>
    <edge id=":longford_4" function="internal">
        <lane id=":longford_4_0" index="0" speed="8.75" length="24.18" shape="1351.86,2295.48 1354.44,2302.35 1358.10,2305.51 1362.85,2304.98 1368.70,2300.75"/>
    </edge>
    <edge id=":longford_5" function="internal">
        <lane id=":longford_5_0" index="0" speed="10.00" length="23.92" shape="1351.86,2295.48 1354.34,2303.57 1357.41,2309.15 1361.09,2312.21 1365.35,2312.75"/>
    </edge>
    <edge id=":longford_6" function="internal">
        <lane id=":longford_6_0" index="0" speed="10.00" length="28.70" shape="1351.86,2295.48 1354.49,2304.16 1357.90,2310.90 1362.08,2315.70 1367.04,2318.55"/>
    </edge>
    <edge id=":longford_7" function="internal">
        <lane id=":longford_7_0" index="0" speed="10.00" length="30.10" shape="1351.86,2295.48 1353.81,2301.30 1357.27,2309.60 1361.22,2317.63 1364.61,2322.61"/>
    </edge>
    <edge id=":longford_8" function="internal">
        <lane id=":longford_8_0" index="0" speed="9.62" length="26.40" shape="1348.11,2296.74 1352.18,2303.20 1356.97,2306.01 1362.47,2305.20 1368.70,2300.75"/>
    </edge>
    <edge id=":longford_9" function="internal">
        <lane id=":longford_9_0" index="0" speed="10.00" length="25.10" shape="1348.11,2296.74 1352.13,2304.30 1356.35,2309.49 1360.75,2312.31 1365.35,2312.75"/>
    </edge>
    <edge id=":longford_10" function="internal">
        <lane id=":longford_10_0" index="0" speed="10.00" length="29.59" shape="1348.11,2296.74 1352.32,2304.85 1356.88,2311.18 1361.78,2315.75 1367.04,2318.55"/>
    </edge>
    <edge id=":longford_11" function="internal">
        <lane id=":longford_11_0" index="0" speed="10.00" length="30.73" shape="1348.11,2296.74 1351.03,2302.24 1355.74,2310.12 1360.76,2317.78 1364.61,2322.61"/>
    </edge>
    <edge id=":monaghan_0" function="internal">
        <lane id=":monaghan_0_0" index="0" speed="5.88" length="8.99" shape="1842.25,2965.88 1839.87,2964.79 1837.97,2964.87 1836.53,2966.10 1835.57,2968.50"/>
    </edge>
    <edge id=":monaghan_1" function="internal">
        <lane id=":monaghan_1_0" index="0" speed="10.00" length="15.13" shape="1842.25,2965.88 1838.94,2964.08 1835.39,2962.72 1831.69,2961.87 1827.93,2961.57"/>
    </edge>
    <edge id=":monaghan_2" function="internal">
        <lane id=":monaghan_2_0" index="0" speed="10.00" length="14.47" shape="1842.25,2965.88 1839.20,2963.79 1836.46,2961.48 1834.11,2958.82 1832.26,2955.68"/>
    </edge>
    <edge id=":monaghan_3" function="internal">
        <lane id=":monaghan_3_0" index="0" speed="10.00" length="12.67" shape="1837.71,2956.04 1837.48,2959.42 1837.03,2962.32 1836.39,2965.21 1835.57,2968.50"/>
    </edge>
    <edge id=":monaghan_4" function="internal">
        <lane id=":monaghan_4_0" index="0" speed="7.60" length="12.49" shape="1837.71,2956.04 1837.04,2958.48 1835.19,2960.21 1832.15,2961.24 1827.93,2961.57"/>
    </edge>
    <edge id=":monaghan_5" function="internal">
        <lane id=":monaghan_5_0" index="0" speed="5.78" length="12.79" shape="1837.71,2956.04 1837.26,2960.11 1836.20,2961.40 1834.54,2959.92 1832.26,2955.68"/>
    </edge>
    <edge id=":monaghan_6" function="internal">
        <lane id=":monaghan_6_0" index="0" speed="6.12" length="9.29" shape="1832.46,2967.74 1832.74,2965.05 1832.08,2963.12 1830.48,2961.96 1827.93,2961.57"/>
    </edge>
    <edge id=":monaghan_7" function="internal">
        <lane id=":monaghan_7_0" index="0" speed="10.00" length="12.36" shape="1832.46,2967.74 1833.22,2964.45 1833.59,2961.59 1833.34,2958.80 1832.26,2955.68"/>
    </edge>
    <edge id=":monaghan_8" function="internal">
        <lane id=":monaghan_8_0" index="0" speed="3.65" length="4.67" shape="1832.46,2967.74 1833.52,2966.76 1834.40,2966.56 1835.08,2967.14 1835.57,2968.50"/>
    </edge>
    <edge id=":monaghan_9" function="internal">
        <lane id=":monaghan_9_0" index="0" speed="5.96" length="9.12" shape="1842.36,2965.71 1839.94,2964.68 1838.00,2964.80 1836.55,2966.07 1835.57,2968.50"/>
    </edge>
    <edge id=":monaghan_10" function="internal">
        <lane id=":monaghan_10_0" index="0" speed="10.00" length="15.17" shape="1842.36,2965.71 1839.00,2963.98 1835.42,2962.68 1831.70,2961.86 1827.93,2961.57"/>
    </edge>