<?xml version="1.0" encoding="UTF-8"?>

<!-- generated on 2024-09-30 18:12:36 by Eclipse SUMO netconvert Version 1.19.0
<configuration xmlns:xsi="http://www.w3.org/2001/XMLSchema-instance" xsi:noNamespaceSchemaLocation="http://sumo.dlr.de/xsd/netconvertConfiguration.xsd">

    <input>
        <node-files value="nod.xml"/>
        <edge-files value="edge_xmls/00005.xml"/>
    </input>

    <output>
        <output-file value="networks/00005.net.xml"/>
    </output>

</configuration>
-->

<net version="1.16" junctionCornerDetail="5" limitTurnSpeed="5.50" xmlns:xsi="http://www.w3.org/2001/XMLSchema-instance" xsi:noNamespaceSchemaLocation="http://sumo.dlr.de/xsd/net_file.xsd">

    <location netOffset="-682.00,4368.00" convBoundary="0.00,0.00,2498.00,3881.00" origBoundary="682.00,-4368.00,3180.00,-487.00" projParameter="!"/>

    <edge id=":antrim_0" function="internal">
        <lane id=":antrim_0_0" index="0" speed="7.48" length="21.23" shape="2288.08,3466.72 2286.79,3473.06 2283.78,3477.87 2279.88,3479.65 2275.93,3476.92"/>
    </edge>
    <edge id=":antrim_1" function="internal">
        <lane id=":antrim_1_0" index="0" speed="4.62" length="8.50" shape="2288.08,3466.72 2287.16,3468.67 2285.17,3469.43 2283.13,3468.94 2282.05,3467.12"/>
    </edge>
    <edge id=":antrim_2" function="internal">
        <lane id=":antrim_2_0" index="0" speed="6.64" length="17.61" shape="2284.19,3466.90 2283.93,3472.31 2281.99,3476.83 2279.08,3478.88 2275.93,3476.92"/>
    </edge>
    <edge id=":antrim_3" function="internal">
        <lane id=":antrim_3_0" index="0" speed="3.24" length="3.14" shape="2284.19,3466.90 2283.74,3467.75 2283.23,3468.08 2282.67,3467.86 2282.05,3467.12"/>
    </edge>
    <edge id=":antrim_4" function="internal">
        <lane id=":antrim_4_0" index="0" speed="6.39" length="15.48" shape="2277.84,3475.64 2280.34,3478.04 2281.87,3477.42 2282.44,3473.78 2282.05,3467.12"/>
    </edge>
    <edge id=":antrim_5" function="internal">
        <lane id=":antrim_5_0" index="0" speed="9.08" length="40.07" shape="2277.84,3475.64 2268.63,3463.78 2265.24,3460.04 2267.67,3464.42 2275.93,3476.92"/>
    </edge>
    <edge id=":athlone_0" function="internal">
        <lane id=":athlone_0_0" index="0" speed="5.91" length="11.27" shape="1256.89,1974.63 1255.80,1970.68 1254.36,1968.70 1252.55,1968.69 1250.40,1970.65"/>
    </edge>
    <edge id=":athlone_1" function="internal">
        <lane id=":athlone_1_0" index="0" speed="10.00" length="22.42" shape="1256.89,1974.63 1256.10,1968.02 1256.32,1962.21 1257.55,1957.19 1259.79,1952.96"/>
    </edge>
    <edge id=":athlone_2" function="internal">
        <lane id=":athlone_2_0" index="0" speed="9.45" length="19.23" shape="1256.89,1974.63 1256.77,1969.60 1257.92,1964.28 1260.12,1959.86 1263.16,1957.55"/>
    </edge>
    <edge id=":athlone_3" function="internal">
        <lane id=":athlone_3_0" index="0" speed="6.13" length="11.81" shape="1257.74,1974.42 1256.35,1970.48 1254.66,1968.53 1252.67,1968.59 1250.40,1970.65"/>
    </edge>
    <edge id=":athlone_4" function="internal">
        <lane id=":athlone_4_0" index="0" speed="10.00" length="22.21" shape="1257.74,1974.42 1256.57,1967.92 1256.52,1962.18 1257.59,1957.20 1259.79,1952.96"/>
    </edge>
    <edge id=":athlone_5" function="internal">
        <lane id=":athlone_5_0" index="0" speed="9.14" length="18.84" shape="1257.74,1974.42 1257.34,1969.53 1258.20,1964.27 1260.19,1959.86 1263.16,1957.55"/>
    </edge>
    <edge id=":athlone_6" function="internal">
        <lane id=":athlone_6_0" index="0" speed="7.31" length="14.41" shape="1261.88,1972.58 1258.92,1969.13 1256.02,1967.66 1253.18,1968.17 1250.40,1970.65"/>
    </edge>
    <edge id=":athlone_7" function="internal">
        <lane id=":athlone_7_0" index="0" speed="10.00" length="21.06" shape="1261.88,1972.58 1258.81,1967.00 1257.44,1961.87 1257.77,1957.19 1259.79,1952.96"/>
    </edge>
    <edge id=":athlone_8" function="internal">
        <lane id=":athlone_8_0" index="0" speed="7.74" length="16.72" shape="1261.88,1972.58 1260.21,1968.65 1259.63,1963.96 1260.50,1959.83 1263.16,1957.55"/>
    </edge>
    <edge id=":athlone_9" function="internal">
        <lane id=":athlone_9_0" index="0" speed="8.82" length="16.48" shape="1265.00,1969.02 1260.84,1966.92 1257.01,1966.49 1253.53,1967.74 1250.40,1970.65"/>
    </edge>
    <edge id=":athlone_10" function="internal">
        <lane id=":athlone_10_0" index="0" speed="8.90" length="18.16" shape="1265.00,1969.02 1261.79,1965.77 1259.51,1961.39 1258.67,1956.81 1259.79,1952.96"/>
    </edge>
    <edge id=":athlone_11" function="internal">
        <lane id=":athlone_11_0" index="0" speed="6.33" length="13.20" shape="1265.00,1969.02 1262.83,1966.44 1261.47,1962.82 1261.41,1959.43 1263.16,1957.55"/>
    </edge>
    <edge id=":athlone_12" function="internal">
        <lane id=":athlone_12_0" index="0" speed="3.34" length="3.21" shape="1260.52,1953.35 1260.88,1952.24 1260.87,1951.80 1260.51,1952.05 1259.79,1952.96"/>
    </edge>
    <edge id=":athlone_13" function="internal">
        <lane id=":athlone_13_0" index="0" speed="4.95" length="6.96" shape="1260.52,1953.35 1259.95,1955.62 1260.19,1957.08 1261.26,1957.72 1263.16,1957.55"/>
    </edge>
    <edge id=":athlone_14" function="internal">
        <lane id=":athlone_14_0" index="0" speed="10.00" length="20.09" shape="1260.52,1953.35 1258.65,1957.48 1255.98,1962.29 1253.04,1966.95 1250.40,1970.65"/>
    </edge>
    <edge id=":athlone_15" function="internal">
        <lane id=":athlone_15_0" index="0" speed="10.00" length="11.84" shape="1251.71,1961.38 1254.44,1959.68 1256.33,1957.85 1257.93,1955.68 1259.79,1952.96"/>
    </edge>
    <edge id=":athlone_16" function="internal">
        <lane id=":athlone_16_0" index="0" speed="10.00" length="12.11" shape="1251.71,1961.38 1254.70,1960.00 1257.29,1959.07 1259.95,1958.34 1263.16,1957.55"/>
    </edge>
    <edge id=":athlone_17" function="internal">
        <lane id=":athlone_17_0" index="0" speed="5.31" length="10.60" shape="1251.71,1961.38 1252.95,1961.89 1252.82,1964.57 1251.81,1967.97 1250.40,1970.65"/>
    </edge>
    <edge id=":belfast_0" function="internal">
        <lane id=":belfast_0_0" index="0" speed="5.40" length="10.02" shape="2490.29,3349.43 2492.72,3351.54 2494.34,3351.81 2495.14,3350.24 2495.13,3346.83"/>
    </edge>
    <edge id=":belfast_1" function="internal">
        <lane id=":belfast_1_0" index="0" speed="5.09" length="10.12" shape="2490.29,3349.43 2491.53,3352.30 2491.31,3354.22 2489.64,3355.21 2486.52,3355.25"/>
    </edge>
    <edge id=":bray_0" function="internal">
        <lane id=":bray_0_0" index="0" speed="4.00" length="5.71" shape="2433.10,1662.60 2431.06,1663.18 2430.41,1663.53 2431.14,1663.66 2433.25,1663.56"/>
    </edge>
    <edge id=":bray_1" function="internal">
        <lane id=":bray_1_0" index="0" speed="5.94" length="10.32" shape="2433.10,1662.60 2437.22,1661.35 2439.77,1660.05 2440.75,1658.71 2440.16,1657.34"/>
    </edge>
    <edge id=":bray_2" function="internal">
        <lane id=":bray_2_0" index="0" speed="4.74" length="7.71" shape="2434.87,1666.81 2436.80,1665.19 2437.17,1664.11 2435.99,1663.56 2433.25,1663.56"/>
    </edge>
    <edge id=":bray_3" function="internal">
        <lane id=":bray_3_0" index="0" speed="7.07" length="12.23" shape="2434.87,1666.81 2438.45,1663.95 2440.52,1661.42 2441.09,1659.22 2440.16,1657.34"/>
    </edge>
    <edge id=":carlow_0" function="internal">
        <lane id=":carlow_0_0" index="0" speed="10.00" length="29.18" shape="1886.56,1170.11 1884.72,1159.90 1882.24,1152.20 1879.11,1147.00 1875.32,1144.31"/>
    </edge>
    <edge id=":carlow_1" function="internal">
        <lane id=":carlow_1_0" index="0" speed="10.00" length="18.48" shape="1889.49,1155.83 1886.79,1152.49 1883.15,1149.11 1879.14,1146.21 1875.32,1144.31"/>
    </edge>
    <edge id=":carlow_2" function="internal">
        <lane id=":carlow_2_0" index="0" speed="5.64" length="9.27" shape="1876.49,1150.91 1878.40,1148.87 1878.84,1147.09 1877.82,1145.57 1875.32,1144.31"/>
    </edge>
    <edge id=":carlow_3" function="internal">
        <lane id=":carlow_3_0" index="0" speed="10.00" length="28.35" shape="1882.74,1170.31 1882.51,1159.99 1881.20,1152.22 1878.80,1146.99 1875.32,1144.31"/>
    </edge>
    <edge id=":carrick_0" function="internal">
        <lane id=":carrick_0_0" index="0" speed="6.94" length="11.40" shape="1129.68,2579.58 1127.66,2580.81 1125.42,2580.68 1122.97,2579.17 1120.31,2576.30"/>
    </edge>
    <edge id=":carrick_1" function="internal">
        <lane id=":carrick_1_0" index="0" speed="5.83" length="14.53" shape="1129.68,2579.58 1133.41,2575.63 1134.41,2573.97 1132.68,2574.59 1128.23,2577.50"/>
    </edge>
    <edge id=":castlebar_0" function="internal">
        <lane id=":castlebar_0_0" index="0" speed="6.88" length="18.19" shape="319.22,2444.98 314.41,2444.17 311.45,2441.05 310.96,2436.86 313.55,2432.82"/>
    </edge>
    <edge id=":castlebar_1" function="internal">
        <lane id=":castlebar_1_0" index="0" speed="5.84" length="13.75" shape="319.22,2444.98 315.06,2444.14 313.08,2442.41 313.27,2439.79 315.65,2436.27"/>
    </edge>
    <edge id=":castlebar_2" function="internal">
        <lane id=":castlebar_2_0" index="0" speed="6.29" length="14.08" shape="304.26,2433.51 304.18,2436.61 305.70,2437.52 308.83,2436.26 313.55,2432.82"/>
    </edge>
    <edge id=":castlebar_3" function="internal">
        <lane id=":castlebar_3_0" index="0" speed="7.04" length="16.33" shape="304.26,2433.51 304.22,2437.27 306.10,2438.98 309.91,2438.64 315.65,2436.27"/>
    </edge>
    <edge id=":cavan_0" function="internal">
        <lane id=":cavan_0_0" index="0" speed="5.50" length="10.93" shape="1676.38,2617.33 1679.01,2619.95 1680.69,2620.46 1681.41,2618.87 1681.18,2615.16"/>
    </edge>
    <edge id=":cavan_1" function="internal">
        <lane id=":cavan_1_0" index="0" speed="10.00" length="17.86" shape="1681.71,2632.78 1682.72,2628.86 1682.60,2624.17 1681.90,2619.38 1681.18,2615.16"/>
    </edge>
    <edge id=":clonmel_0" function="internal">
        <lane id=":clonmel_0_0" index="0" speed="8.16" length="3.87" shape="1383.78,612.65 1383.58,611.53 1383.33,610.78 1382.89,610.11 1382.13,609.27"/>
    </edge>
    <edge id=":clonmel_1" function="internal">
        <lane id=":clonmel_1_0" index="0" speed="3.70" length="4.79" shape="1383.78,612.65 1384.36,611.29 1385.09,610.74 1385.98,611.00 1387.01,612.06"/>
    </edge>
    <edge id=":cork_0" function="internal">
        <lane id=":cork_0_0" index="0" speed="5.24" length="11.19" shape="824.06,24.07 822.24,20.38 821.26,19.27 821.12,20.74 821.82,24.80"/>
    </edge>
    <edge id=":cork_1" function="internal">
        <lane id=":cork_1_0" index="0" speed="6.48" length="16.91" shape="824.06,24.07 820.88,17.79 818.65,15.19 817.37,16.26 817.03,21.02"/>
    </edge>
    <edge id=":cork_2" function="internal">
        <lane id=":cork_2_0" index="0" speed="7.35" length="20.30" shape="824.06,24.07 820.17,16.57 817.02,13.02 814.59,13.40 812.90,17.73"/>
    </edge>
    <edge id=":cork_3" function="internal">
        <lane id=":cork_3_0" index="0" speed="6.62" length="18.02" shape="827.45,22.43 823.69,17.24 821.49,15.91 820.87,18.43 821.82,24.80"/>
    </edge>
    <edge id=":cork_4" function="internal">
        <lane id=":cork_4_0" index="0" speed="7.22" length="20.20" shape="827.45,22.43 822.78,16.05 819.48,13.69 817.57,15.35 817.03,21.02"/>
    </edge>
    <edge id=":cork_5" function="internal">
        <lane id=":cork_5_0" index="0" speed="7.96" length="22.53" shape="827.45,22.43 822.16,15.28 817.97,12.12 814.88,12.93 812.90,17.73"/>
    </edge>
    <edge id=":cork_6" function="internal">
        <lane id=":cork_6_0" index="0" speed="7.23" length="20.30" shape="828.39,16.68 823.99,12.91 821.42,13.00 820.70,16.97 821.82,24.80"/>
    </edge>
    <edge id=":cork_7" function="internal">
        <lane id=":cork_7_0" index="0" speed="7.57" length="20.64" shape="828.39,16.68 823.29,12.25 819.70,11.50 817.61,14.42 817.03,21.02"/>
    </edge>
    <edge id=":cork_8" function="internal">
        <lane id=":cork_8_0" index="0" speed="8.19" length="21.89" shape="828.39,16.68 822.75,11.74 818.29,10.27 815.01,12.27 812.90,17.73"/>
    </edge>
    <edge id=":cork_9" function="internal">
        <lane id=":cork_9_0" index="0" speed="7.34" length="20.76" shape="828.77,16.31 824.18,12.60 821.49,12.78 820.70,16.85 821.82,24.80"/>
    </edge>
    <edge id=":cork_10" function="internal">
        <lane id=":cork_10_0" index="0" speed="7.67" length="20.99" shape="828.77,16.31 823.50,11.99 819.79,11.33 817.64,14.34 817.03,21.02"/>
    </edge>
    <edge id=":cork_11" function="internal">
        <lane id=":cork_11_0" index="0" speed="8.29" length="22.17" shape="828.77,16.31 822.97,11.50 818.39,10.14 815.04,12.21 812.90,17.73"/>
    </edge>
    <edge id=":craigavon_0" function="internal">
        <lane id=":craigavon_0_0" index="0" speed="10.00" length="19.26" shape="2153.21,3163.69 2149.15,3162.07 2144.09,3160.89 2138.90,3160.04 2134.50,3159.43"/>
    </edge>
    <edge id=":craigavon_1" function="internal">
        <lane id=":craigavon_1_0" index="0" speed="10.00" length="20.34" shape="2153.21,3163.69 2149.41,3161.14 2144.99,3157.73 2140.66,3154.19 2137.15,3151.23"/>
    </edge>
    <edge id=":craigavon_2" function="internal">
        <lane id=":craigavon_2_0" index="0" speed="10.00" length="15.99" shape="2153.21,3163.69 2151.06,3161.79 2149.31,3158.78 2147.96,3154.66 2147.00,3149.44"/>
    </edge>
    <edge id=":craigavon_3" function="internal">
        <lane id=":craigavon_3_0" index="0" speed="10.00" length="15.88" shape="2153.21,3163.69 2151.08,3161.77 2149.45,3158.74 2148.32,3154.60 2147.69,3149.35"/>
    </edge>
    <edge id=":craigavon_4" function="internal">
        <lane id=":craigavon_4_0" index="0" speed="4.59" length="8.31" shape="2137.88,3150.38 2135.22,3148.77 2134.21,3148.37 2134.85,3149.19 2137.15,3151.23"/>
    </edge>
    <edge id=":craigavon_5" function="internal">
        <lane id=":craigavon_5_0" index="0" speed="6.27" length="12.74" shape="2137.88,3150.38 2142.23,3152.73 2145.20,3153.36 2146.79,3152.26 2147.00,3149.44"/>
    </edge>
    <edge id=":craigavon_6" function="internal">
        <lane id=":craigavon_6_0" index="0" speed="6.49" length="13.33" shape="2137.88,3150.38 2142.36,3152.78 2145.49,3153.41 2147.26,3152.27 2147.69,3149.35"/>
    </edge>
    <edge id=":craigavon_7" function="internal">
        <lane id=":craigavon_7_0" index="0" speed="5.84" length="13.25" shape="2137.88,3150.38 2140.01,3153.12 2139.88,3156.27 2137.91,3158.74 2134.50,3159.43"/>
    </edge>
    <edge id=":craigavon_8" function="internal">
        <lane id=":craigavon_8_0" index="0" speed="5.50" length="11.00" shape="2134.99,3155.98 2138.72,3156.26 2140.33,3155.56 2139.80,3153.88 2137.15,3151.23"/>
    </edge>
    <edge id=":craigavon_9" function="internal">
        <lane id=":craigavon_9_0" index="0" speed="7.82" length="16.49" shape="2134.99,3155.98 2140.67,3156.36 2144.56,3155.40 2146.67,3153.09 2147.00,3149.44"/>
    </edge>
    <edge id=":craigavon_10" function="internal">
        <lane id=":craigavon_10_0" index="0" speed="8.08" length="16.96" shape="2134.99,3155.98 2140.76,3156.36 2144.80,3155.38 2147.11,3153.05 2147.69,3149.35"/>
    </edge>
    <edge id=":craigavon_11" function="internal">
        <lane id=":craigavon_11_0" index="0" speed="3.77" length="5.09" shape="2134.99,3155.98 2136.16,3157.02 2136.47,3157.95 2135.92,3158.75 2134.50,3159.43"/>
    </edge>
    <edge id=":derry_0" function="internal">
        <lane id=":derry_0_0" index="0" speed="8.08" length="23.79" shape="1619.72,3860.60 1616.16,3866.43 1611.19,3869.40 1606.10,3868.88 1602.19,3864.26"/>
    </edge>
    <edge id=":derry_1" function="internal">
        <lane id=":derry_1_0" index="0" speed="6.94" length="18.84" shape="1619.72,3860.60 1616.72,3865.13 1612.48,3867.43 1608.44,3866.93 1606.06,3863.10"/>
    </edge>
    <edge id=":derry_2" function="internal">
        <lane id=":derry_2_0" index="0" speed="5.56" length="12.27" shape="1619.72,3860.60 1617.62,3862.79 1614.12,3864.11 1610.82,3864.15 1609.36,3862.50"/>
    </edge>
    <edge id=":derry_3" function="internal">
        <lane id=":derry_3_0" index="0" speed="5.94" length="14.50" shape="1619.72,3860.60 1617.95,3864.71 1615.73,3866.38 1613.07,3865.60 1609.95,3862.39"/>
    </edge>
    <edge id=":derry_4" function="internal">
        <lane id=":derry_4_0" index="0" speed="2.70" length="1.43" shape="1609.59,3862.45 1609.49,3861.94 1609.42,3861.77 1609.38,3861.96 1609.36,3862.50"/>
    </edge>
    <edge id=":derry_5" function="internal">
        <lane id=":derry_5_0" index="0" speed="2.90" length="1.96" shape="1609.59,3862.45 1609.73,3863.16 1609.83,3863.38 1609.91,3863.12 1609.95,3862.39"/>
    </edge>
    <edge id=":derry_6" function="internal">
        <lane id=":derry_6_0" index="0" speed="4.80" length="8.97" shape="1609.59,3862.45 1608.74,3864.12 1606.41,3865.17 1603.82,3865.32 1602.19,3864.26"/>
    </edge>
    <edge id=":derry_7" function="internal">
        <lane id=":derry_7_0" index="0" speed="3.80" length="5.23" shape="1609.59,3862.45 1608.95,3863.94 1608.15,3864.54 1607.19,3864.26 1606.06,3863.10"/>
    </edge>
    <edge id=":dublin_0" function="internal">
        <lane id=":dublin_0_0" index="0" speed="7.08" length="13.08" shape="2308.98,1819.49 2313.38,1817.70 2316.05,1815.68 2316.99,1813.45 2316.19,1811.01"/>
    </edge>
    <edge id=":dublin_1" function="internal">
        <lane id=":dublin_1_0" index="0" speed="8.59" length="20.70" shape="2308.98,1819.49 2313.74,1819.69 2318.41,1822.45 2321.94,1826.74 2323.29,1831.51"/>
    </edge>
    <edge id=":dublin_2" function="internal">
        <lane id=":dublin_2_0" index="0" speed="8.14" length="21.92" shape="2308.98,1819.49 2315.45,1818.32 2319.26,1819.81 2320.43,1823.95 2318.96,1830.74"/>
    </edge>
    <edge id=":dublin_3" function="internal">
        <lane id=":dublin_3_0" index="0" speed="8.46" length="14.90" shape="2311.13,1823.53 2314.72,1820.16 2316.76,1816.96 2317.25,1813.91 2316.19,1811.01"/>
    </edge>
    <edge id=":dublin_4" function="internal">
        <lane id=":dublin_4_0" index="0" speed="8.02" length="21.77" shape="2311.13,1823.53 2316.59,1820.32 2320.44,1820.58 2322.67,1824.31 2323.29,1831.51"/>
    </edge>
    <edge id=":dublin_5" function="internal">
        <lane id=":dublin_5_0" index="0" speed="5.81" length="12.33" shape="2311.13,1823.53 2313.69,1823.26 2316.52,1825.05 2318.61,1827.89 2318.96,1830.74"/>
    </edge>
    <edge id=":dundalk_0" function="internal">
        <lane id=":dundalk_0_0" index="0" speed="6.78" length="12.38" shape="2235.38,2634.68 2236.42,2632.30 2235.76,2630.13 2233.39,2628.17 2229.32,2626.40"/>
    </edge>
    <edge id=":dundalk_1" function="internal">
        <lane id=":dundalk_1_0" index="0" speed="8.66" length="17.53" shape="2237.93,2636.62 2239.30,2633.40 2238.63,2629.99 2235.93,2626.39 2231.20,2622.60"/>
    </edge>
    <edge id=":ennis_0" function="internal">
        <lane id=":ennis_0_0" index="0" speed="5.82" length="13.19" shape="486.45,1225.35 484.26,1220.93 482.67,1219.42 481.67,1220.83 481.28,1225.16"/>
    </edge>
    <edge id=":ennis_1" function="internal">
        <lane id=":ennis_1_0" index="0" speed="5.95" length="14.24" shape="486.45,1225.35 486.31,1221.68 488.49,1219.05 491.82,1218.19 495.15,1219.83"/>
    </edge>
    <edge id=":ennis_2" function="internal">
        <lane id=":ennis_2_0" index="0" speed="5.65" length="12.90" shape="486.45,1225.35 486.37,1222.04 488.41,1219.68 491.46,1218.95 494.39,1220.53"/>
    </edge>
    <edge id=":ennis_3" function="internal">
        <lane id=":ennis_3_0" index="0" speed="4.40" length="7.54" shape="486.45,1225.35 486.49,1223.44 487.83,1222.08 489.65,1221.73 491.16,1222.82"/>
    </edge>
    <edge id=":ennis_4" function="internal">
        <lane id=":ennis_4_0" index="0" speed="4.30" length="7.15" shape="486.45,1225.35 486.65,1223.16 487.44,1222.04 488.81,1222.00 490.76,1223.04"/>
    </edge>
    <edge id=":enniskillen_0" function="internal">
        <lane id=":enniskillen_0_0" index="0" speed="9.25" length="24.48" shape="1461.02,3064.46 1457.59,3062.18 1457.39,3057.34 1459.56,3050.70 1463.29,3043.03"/>
    </edge>
    <edge id=":enniskillen_1" function="internal">
        <lane id=":enniskillen_1_0" index="0" speed="5.78" length="13.18" shape="1458.84,3041.66 1458.62,3046.33 1459.28,3048.12 1460.84,3047.02 1463.29,3043.03"/>
    </edge>
    <edge id=":enniskillen_2" function="internal">
        <lane id=":enniskillen_2_0" index="0" speed="6.83" length="16.76" shape="1453.36,3046.33 1454.84,3050.26 1456.99,3051.01 1459.81,3048.61 1463.29,3043.03"/>
    </edge>
    <edge id=":enniskillen_3" function="internal">
        <lane id=":enniskillen_3_0" index="0" speed="7.90" length="20.09" shape="1449.33,3047.78 1452.33,3051.53 1455.66,3051.99 1459.31,3049.16 1463.29,3043.03"/>
    </edge>
    <edge id=":galway_0" function="internal">
        <lane id=":galway_0_0" index="0" speed="10.00" length="12.23" shape="474.54,1748.14 472.48,1745.52 470.82,1743.26 469.41,1740.85 468.10,1737.82"/>
    </edge>
    <edge id=":galway_1" function="internal">
        <lane id=":galway_1_0" index="0" speed="6.98" length="17.58" shape="477.19,1728.13 474.32,1735.32 471.85,1739.34 469.77,1740.17 468.10,1737.82"/>
    </edge>
    <edge id=":galway_2" function="internal">
        <lane id=":galway_2_0" index="0" speed="6.16" length="15.27" shape="472.83,1727.35 472.36,1732.52 471.26,1737.22 469.77,1739.60 468.10,1737.82"/>
    </edge>
    <edge id=":kilkenny_0" function="internal">
        <lane id=":kilkenny_0_0" index="0" speed="6.98" length="21.72" shape="1687.29,995.69 1686.45,987.70 1685.52,985.03 1684.49,987.67 1683.37,995.62"/>
    </edge>
    <edge id=":kilkenny_1" function="internal">
        <lane id=":kilkenny_1_0" index="0" speed="3.79" length="5.21" shape="1679.83,995.23 1680.86,994.00 1681.79,993.65 1682.63,994.19 1683.37,995.62"/>
    </edge>
    <edge id=":letterkenny_0" function="internal">
        <lane id=":letterkenny_0_0" index="0" speed="5.53" length="11.28" shape="1350.72,3783.78 1350.49,3787.64 1351.21,3789.25 1352.86,3788.61 1355.45,3785.73"/>
    </edge>
    <edge id=":letterkenny_1" function="internal">
        <lane id=":letterkenny_1_0" index="0" speed="6.34" length="16.63" shape="1350.72,3783.78 1349.10,3788.90 1346.36,3793.04 1343.56,3794.67 1341.75,3792.20"/>
    </edge>
    <edge id=":letterkenny_2" function="internal">
        <lane id=":letterkenny_2_0" index="0" speed="3.83" length="5.33" shape="1350.72,3783.78 1349.65,3785.03 1348.69,3785.38 1347.84,3784.82 1347.09,3783.35"/>
    </edge>
    <edge id=":letterkenny_3" function="internal">
        <lane id=":letterkenny_3_0" index="0" speed="3.77" length="4.58" shape="1340.46,3792.67 1341.33,3794.07 1341.83,3794.46 1341.97,3793.83 1341.75,3792.20"/>
    </edge>
    <edge id=":letterkenny_4" function="internal">
        <lane id=":letterkenny_4_0" index="0" speed="6.72" length="16.70" shape="1340.46,3792.67 1342.57,3795.16 1344.39,3794.45 1345.89,3790.51 1347.09,3783.35"/>
    </edge>
    <edge id=":letterkenny_5" function="internal">
        <lane id=":letterkenny_5_0" index="0" speed="8.76" length="22.65" shape="1340.46,3792.67 1343.71,3796.26 1347.72,3796.63 1352.48,3793.76 1358.00,3787.67"/>
    </edge>
    <edge id=":limerick_0" function="internal">
        <lane id=":limerick_0_0" index="0" speed="9.29" length="37.92" shape="777.53,988.73 766.97,980.13 761.88,978.49 762.27,983.82 768.13,996.11"/>
    </edge>
    <edge id=":limerick_1" function="internal">
        <lane id=":limerick_1_0" index="0" speed="9.77" length="40.87" shape="777.53,988.73 766.28,979.78 760.46,978.33 760.07,984.37 765.12,997.91"/>
    </edge>
    <edge id=":limerick_2" function="internal">
        <lane id=":limerick_2_0" index="0" speed="10.00" length="42.10" shape="777.53,988.73 763.51,976.37 753.26,968.21 746.78,964.25 744.08,964.49"/>
    </edge>
    <edge id=":longford_0" function="internal">
        <lane id=":longford_0_0" index="0" speed="5.48" length="9.69" shape="1351.72,2304.79 1353.30,2307.45 1354.83,2308.31 1356.33,2307.38 1357.79,2304.66"/>
    </edge>
    <edge id=":longford_1" function="internal">
        <lane id=":longford_1_0" index="0" speed="10.00" length="10.78" shape="1351.72,2304.79 1353.20,2307.53 1354.51,2309.47 1355.59,2311.48 1356.36,2314.43"/>
    </edge>
    <edge id=":monaghan_0" function="internal">
        <lane id=":monaghan_0_0" index="0" speed="4.78" length="9.25" shape="1830.65,2924.96 1831.39,2928.33 1831.83,2929.43 1831.95,2928.26 1831.76,2924.81"/>
    </edge>
    <edge id=":monaghan_1" function="internal">
        <lane id=":monaghan_1_0" index="0" speed="7.02" length="21.67" shape="1830.65,2924.96 1832.50,2932.72 1833.89,2935.25 1834.85,2932.56 1835.35,2924.63"/>
    </edge>
    <edge id=":monaghan_2" function="internal">
        <lane id=":monaghan_2_0" index="0" speed="10.00" length="37.23" shape="1830.65,2924.96 1833.80,2939.97 1836.44,2950.95 1838.59,2957.89 1840.23,2960.80"/>
    </edge>
    <edge id=":monaghan_3" function="internal">
        <lane id=":monaghan_3_0" index="0" speed="7.69" length="24.43" shape="1830.58,2946.71 1831.88,2947.59 1832.51,2944.23 1832.47,2936.64 1831.76,2924.81"/>
    </edge>
    <edge id=":monaghan_4" function="internal">
        <lane id=":monaghan_4_0" index="0" speed="8.08" length="26.05" shape="1830.58,2946.71 1832.37,2948.07 1833.76,2944.84 1834.76,2937.03 1835.35,2924.63"/>
    </edge>
    <edge id=":monaghan_5" function="internal">
        <lane id=":monaghan_5_0" index="0" speed="10.00" length="17.23" shape="1830.58,2946.71 1832.50,2950.38 1834.72,2954.39 1837.28,2958.08 1840.23,2960.80"/>
    </edge>
    <edge id=":naas_0" function="internal">
        <lane id=":naas_0_0" index="0" speed="4.04" length="4.32" shape="2085.12,1626.83 2084.82,1625.52 2084.26,1624.92 2083.46,1625.04 2082.40,1625.87"/>
    </edge>
    <edge id=":navan_0" function="internal">
        <lane id=":navan_0_0" index="0" speed="7.10" length="11.54" shape="2084.89,2208.39 2084.18,2206.03 2082.42,2204.51 2079.61,2203.84 2075.75,2204.02"/>
    </edge>
    <edge id=":navan_1" function="internal">
        <lane id=":navan_1_0" index="0" speed="10.00" length="10.59" shape="2084.89,2208.39 2084.14,2205.43 2082.86,2203.38 2081.73,2201.25 2081.44,2198.05"/>
        <lane id=":navan_1_1" index="1" speed="10.00" length="10.59" shape="2084.89,2208.39 2084.65,2205.42 2084.47,2203.37 2084.44,2201.31 2084.63,2198.33"/>
    </edge>
    <edge id=":navan_3" function="internal">
        <lane id=":navan_3_0" index="0" speed="3.93" length="5.59" shape="2084.89,2208.39 2085.62,2206.82 2086.50,2206.21 2087.52,2206.54 2088.68,2207.81"/>
    </edge>
    <edge id=":omagh_0" function="internal">
        <lane id=":omagh_0_0" index="0" speed="10.00" length="0.39" shape="1608.40,3361.40 1608.40,3361.28 1608.39,3361.20 1608.38,3361.12 1608.35,3361.01"/>
    </edge>
    <edge id=":portlaoise_0" function="internal">
        <lane id=":portlaoise_0_0" index="0" speed="6.35" length="11.20" shape="1688.85,1359.66 1687.25,1360.99 1685.33,1360.73 1683.09,1358.88 1680.54,1355.44"/>
    </edge>
    <edge id=":portlaoise_1" function="internal">
        <lane id=":portlaoise_1_0" index="0" speed="5.78" length="12.77" shape="1688.85,1359.66 1686.60,1362.30 1685.27,1362.31 1684.84,1359.68 1685.32,1354.40"/>
    </edge>
    <edge id=":portlaoise_2" function="internal">
        <lane id=":portlaoise_2_0" index="0" speed="8.78" length="12.29" shape="1679.78,1366.93 1681.44,1363.97 1682.12,1361.07 1681.82,1358.23 1680.54,1355.44"/>
    </edge>
    <edge id=":portlaoise_3" function="internal">
        <lane id=":portlaoise_3_0" index="0" speed="10.00" length="13.84" shape="1679.78,1366.93 1681.78,1363.96 1683.38,1361.00 1684.57,1357.88 1685.32,1354.40"/>
    </edge>
    <edge id=":portlaoise_4" function="internal">
        <lane id=":portlaoise_4_0" index="0" speed="10.00" length="14.83" shape="1684.14,1369.61 1684.02,1365.88 1683.41,1362.23 1682.26,1358.73 1680.54,1355.44"/>
    </edge>
    <edge id=":portlaoise_5" function="internal">
        <lane id=":portlaoise_5_0" index="0" speed="10.00" length="15.26" shape="1684.14,1369.61 1684.29,1365.82 1684.52,1361.99 1684.86,1358.17 1685.32,1354.40"/>
    </edge>
    <edge id=":roscommon_0" function="internal">
        <lane id=":roscommon_0_0" index="0" speed="10.00" length="22.17" shape="1046.12,2235.22 1046.21,2230.41 1048.45,2226.27 1052.82,2222.82 1059.34,2220.04"/>
    </edge>
    <edge id=":roscommon_1" function="internal">
        <lane id=":roscommon_1_0" index="0" speed="8.36" length="22.25" shape="1054.65,2235.42 1050.49,2230.68 1049.88,2226.54 1052.83,2223.00 1059.34,2220.04"/>
    </edge>
    <edge id=":roscommon_2" function="internal">
        <lane id=":roscommon_2_0" index="0" speed="7.53" length="21.31" shape="1056.93,2231.37 1051.06,2228.64 1049.51,2225.84 1052.27,2222.97 1059.34,2220.04"/>
    </edge>
    <edge id=":roscommon_3" function="internal">
        <lane id=":roscommon_3_0" index="0" speed="5.48" length="10.66" shape="1056.27,2215.61 1054.31,2218.61 1054.16,2220.35 1055.84,2220.83 1059.34,2220.04"/>
    </edge>
    <edge id=":roscommon_4" function="internal">
        <lane id=":roscommon_4_0" index="0" speed="10.00" length="22.14" shape="1040.51,2212.80 1044.03,2217.48 1048.34,2220.25 1053.45,2221.10 1059.34,2220.04"/>
    </edge>
    <edge id=":sligo_0" function="internal">
        <lane id=":sligo_0_0" index="0" speed="5.56" length="9.41" shape="877.38,2945.54 877.80,2948.42 878.91,2949.84 880.71,2949.79 883.20,2948.29"/>
    </edge>
    <edge id=":sligo_1" function="internal">
        <lane id=":sligo_1_0" index="0" speed="8.35" length="13.41" shape="877.38,2945.54 877.88,2949.59 879.19,2952.63 881.30,2954.66 884.21,2955.69"/>
    </edge>
    <edge id=":sligo_2" function="internal">