<?xml version="1.0" encoding="UTF-8"?>

<!-- generated on 2024-09-30 18:12:37 by Eclipse SUMO netconvert Version 1.19.0
<configuration xmlns:xsi="http://www.w3.org/2001/XMLSchema-instance" xsi:noNamespaceSchemaLocation="http://sumo.dlr.de/xsd/netconvertConfiguration.xsd">

    <input>
        <node-files value="nod.xml"/>
        <edge-files value="edge_xmls/00009.xml"/>
    </input>

    <output>
        <output-file value="networks/00009.net.xml"/>
    </output>

</configuration>
-->

<net version="1.16" junctionCornerDetail="5" limitTurnSpeed="5.50" xmlns:xsi="http://www.w3.org/2001/XMLSchema-instance" xsi:noNamespaceSchemaLocation="http://sumo.dlr.de/xsd/net_file.xsd">

    <location netOffset="-682.00,4368.00" convBoundary="0.00,0.00,2498.00,3881.00" origBoundary="682.00,-4368.00,3180.00,-487.00" projParameter="!"/>

    <edge id=":antrim_0" function="internal">
        <lane id=":antrim_0_0" index="0" speed="10.00" length="21.75" shape="2287.27,3471.53 2287.15,3479.73 2286.46,3485.94 2285.19,3490.16 2283.34,3492.39"/>
    </edge>
    <edge id=":antrim_1" function="internal">
        <lane id=":antrim_1_0" index="0" speed="5.39" length="11.25" shape="2287.27,3471.53 2285.99,3473.60 2283.04,3474.82 2279.85,3474.88 2277.85,3473.48"/>
    </edge>
    <edge id=":antrim_2" function="internal">
        <lane id=":antrim_2_0" index="0" speed="4.54" length="8.08" shape="2287.27,3471.53 2286.18,3473.78 2284.90,3474.65 2283.44,3474.15 2281.79,3472.28"/>
    </edge>
    <edge id=":antrim_3" function="internal">
        <lane id=":antrim_3_0" index="0" speed="3.30" length="3.23" shape="2278.29,3473.26 2277.64,3472.25 2277.36,3471.95 2277.43,3472.36 2277.85,3473.48"/>
    </edge>
    <edge id=":antrim_4" function="internal">
        <lane id=":antrim_4_0" index="0" speed="5.14" length="9.96" shape="2278.29,3473.26 2280.35,3476.21 2281.61,3477.03 2282.09,3475.72 2281.79,3472.28"/>
    </edge>
    <edge id=":antrim_5" function="internal">
        <lane id=":antrim_5_0" index="0" speed="9.40" length="20.31" shape="2278.29,3473.26 2280.87,3478.43 2283.02,3484.41 2284.07,3489.60 2283.34,3492.39"/>
    </edge>
    <edge id=":antrim_6" function="internal">
        <lane id=":antrim_6_0" index="0" speed="6.03" length="10.97" shape="2277.29,3482.47 2279.07,3482.23 2279.75,3480.66 2279.35,3477.74 2277.85,3473.48"/>
    </edge>
    <edge id=":antrim_7" function="internal">
        <lane id=":antrim_7_0" index="0" speed="6.99" length="13.33" shape="2277.29,3482.47 2279.92,3482.27 2281.54,3480.51 2282.17,3477.18 2281.79,3472.28"/>
    </edge>
    <edge id=":antrim_8" function="internal">
        <lane id=":antrim_8_0" index="0" speed="6.32" length="13.99" shape="2276.70,3485.61 2282.29,3487.02 2285.27,3488.61 2285.62,3490.41 2283.34,3492.39"/>
    </edge>
    <edge id=":athlone_0" function="internal">
        <lane id=":athlone_0_0" index="0" speed="3.68" length="4.47" shape="1257.31,1972.69 1257.76,1974.27 1258.06,1974.78 1258.19,1974.21 1258.17,1972.56"/>
    </edge>
    <edge id=":athlone_1" function="internal">
        <lane id=":athlone_1_0" index="0" speed="10.00" length="15.25" shape="1257.31,1972.69 1256.40,1969.00 1255.42,1965.28 1254.25,1961.63 1252.76,1958.16"/>
    </edge>
    <edge id=":athlone_2" function="internal">
        <lane id=":athlone_2_0" index="0" speed="7.14" length="18.22" shape="1257.31,1972.69 1256.34,1966.46 1257.32,1963.15 1260.26,1962.75 1265.15,1965.26"/>
    </edge>
    <edge id=":athlone_3" function="internal">
        <lane id=":athlone_3_0" index="0" speed="5.61" length="9.32" shape="1265.83,1958.69 1263.36,1960.10 1262.43,1961.66 1263.02,1963.38 1265.15,1965.26"/>
    </edge>
    <edge id=":athlone_4" function="internal">
        <lane id=":athlone_4_0" index="0" speed="10.00" length="16.99" shape="1265.83,1958.69 1262.28,1960.82 1259.82,1963.84 1258.45,1967.75 1258.17,1972.56"/>
    </edge>
    <edge id=":athlone_5" function="internal">
        <lane id=":athlone_5_0" index="0" speed="8.26" length="14.25" shape="1265.83,1958.69 1261.04,1960.29 1257.27,1960.73 1254.51,1960.02 1252.76,1958.16"/>
    </edge>
    <edge id=":belfast_0" function="internal">
        <lane id=":belfast_0_0" index="0" speed="10.00" length="41.19" shape="2501.85,3328.84 2501.69,3342.81 2499.79,3354.17 2495.38,3360.88 2487.70,3360.92"/>
    </edge>
    <edge id=":belfast_1" function="internal">
        <lane id=":belfast_1_0" index="0" speed="9.01" length="33.55" shape="2498.65,3328.94 2496.06,3335.33 2489.43,3335.00 2481.47,3329.81 2474.86,3321.63"/>
    </edge>
    <edge id=":belfast_2" function="internal">
        <lane id=":belfast_2_0" index="0" speed="8.72" length="31.87" shape="2498.65,3328.94 2496.19,3334.83 2489.94,3334.14 2482.52,3328.79 2476.53,3320.71"/>
    </edge>
    <edge id=":belfast_3" function="internal">
        <lane id=":belfast_3_0" index="0" speed="8.20" length="28.81" shape="2498.65,3328.94 2496.47,3333.95 2490.98,3332.62 2484.60,3327.02 2479.71,3319.22"/>
    </edge>
    <edge id=":belfast_4" function="internal">
        <lane id=":belfast_4_0" index="0" speed="3.65" length="4.67" shape="2498.65,3328.94 2497.89,3330.16 2497.10,3330.59 2496.29,3330.21 2495.45,3329.04"/>
    </edge>
    <edge id=":belfast_5" function="internal">
        <lane id=":belfast_5_0" index="0" speed="7.44" length="23.40" shape="2485.64,3316.81 2490.08,3327.00 2493.20,3332.43 2494.99,3333.11 2495.45,3329.04"/>
    </edge>
    <edge id=":belfast_6" function="internal">
        <lane id=":belfast_6_0" index="0" speed="10.00" length="52.62" shape="2485.64,3316.81 2492.09,3334.22 2496.09,3349.86 2495.38,3360.01 2487.70,3360.92"/>
        <lane id=":belfast_6_1" index="1" speed="10.00" length="44.80" shape="2482.67,3318.01 2488.62,3333.62 2492.72,3347.35 2493.36,3356.40 2488.93,3357.96"/>
    </edge>
    <edge id=":belfast_8" function="internal">
        <lane id=":belfast_8_0" index="0" speed="5.34" length="12.11" shape="2482.67,3318.01 2482.54,3321.03 2480.31,3323.05 2477.31,3323.45 2474.86,3321.63"/>
    </edge>
    <edge id=":belfast_9" function="internal">
        <lane id=":belfast_9_0" index="0" speed="4.79" length="9.46" shape="2482.67,3318.01 2482.54,3320.36 2480.75,3321.91 2478.39,3322.18 2476.53,3320.71"/>
    </edge>
    <edge id=":belfast_10" function="internal">
        <lane id=":belfast_10_0" index="0" speed="3.65" length="4.67" shape="2482.67,3318.01 2482.38,3319.42 2481.79,3320.10 2480.90,3320.03 2479.71,3319.22"/>
    </edge>
    <edge id=":bray_0" function="internal">
        <lane id=":bray_0_0" index="0" speed="5.69" length="12.18" shape="2444.92,1677.90 2444.46,1673.99 2443.41,1672.66 2441.76,1673.93 2439.52,1677.79"/>
    </edge>
    <edge id=":bray_1" function="internal">
        <lane id=":bray_1_0" index="0" speed="10.00" length="26.38" shape="2444.92,1677.90 2444.61,1672.38 2444.03,1664.74 2443.29,1657.11 2442.53,1651.64"/>
    </edge>
    <edge id=":bray_2" function="internal">
        <lane id=":bray_2_0" index="0" speed="3.65" length="4.67" shape="2444.92,1677.90 2445.68,1676.68 2446.47,1676.26 2447.28,1676.63 2448.12,1677.81"/>
    </edge>
    <edge id=":bray_3" function="internal">
        <lane id=":bray_3_0" index="0" speed="5.62" length="9.29" shape="2437.42,1655.89 2440.16,1656.58 2441.92,1656.10 2442.71,1654.46 2442.53,1651.64"/>
    </edge>
    <edge id=":bray_4" function="internal">
        <lane id=":bray_4_0" index="0" speed="10.00" length="27.51" shape="2437.42,1655.89 2443.31,1659.24 2447.59,1663.99 2450.26,1670.15 2451.31,1677.71"/>
    </edge>
    <edge id=":bray_5" function="internal">
        <lane id=":bray_5_0" index="0" speed="10.00" length="25.00" shape="2437.42,1655.89 2441.60,1658.86 2443.34,1663.50 2442.65,1669.81 2439.52,1677.79"/>
    </edge>
    <edge id=":bray_6" function="internal">
        <lane id=":bray_6_0" index="0" speed="10.00" length="24.59" shape="2430.34,1671.84 2436.32,1666.28 2440.34,1661.06 2442.41,1656.18 2442.53,1651.64"/>
    </edge>
    <edge id=":bray_7" function="internal">
        <lane id=":bray_7_0" index="0" speed="9.14" length="28.30" shape="2430.34,1671.84 2437.51,1667.81 2444.19,1667.35 2449.19,1670.61 2451.31,1677.71"/>
    </edge>
    <edge id=":bray_8" function="internal">
        <lane id=":bray_8_0" index="0" speed="6.17" length="15.02" shape="2430.34,1671.84 2434.13,1670.37 2437.70,1671.32 2439.88,1674.02 2439.52,1677.79"/>
    </edge>
    <edge id=":bray_9" function="internal">
        <lane id=":bray_9_0" index="0" speed="10.00" length="25.48" shape="2433.24,1674.66 2437.96,1667.95 2441.09,1661.87 2442.61,1656.44 2442.53,1651.64"/>
    </edge>
    <edge id=":bray_10" function="internal">
        <lane id=":bray_10_0" index="0" speed="7.45" length="20.29" shape="2433.24,1674.66 2437.73,1671.16 2442.54,1670.58 2446.41,1672.82 2448.12,1677.81"/>
    </edge>
    <edge id=":bray_11" function="internal">
        <lane id=":bray_11_0" index="0" speed="4.96" length="9.82" shape="2433.24,1674.66 2435.48,1673.36 2437.93,1673.76 2439.61,1675.40 2439.52,1677.79"/>
    </edge>
    <edge id=":bray_12" function="internal">
        <lane id=":bray_12_0" index="0" speed="10.00" length="25.66" shape="2436.94,1676.52 2438.85,1671.42 2440.90,1664.23 2442.36,1656.96 2442.53,1651.64"/>
    </edge>
    <edge id=":bray_13" function="internal">
        <lane id=":bray_13_0" index="0" speed="6.28" length="15.37" shape="2436.94,1676.52 2439.78,1673.46 2443.45,1672.70 2446.66,1674.18 2448.12,1677.81"/>
    </edge>
    <edge id=":bray_14" function="internal">
        <lane id=":bray_14_0" index="0" speed="3.53" length="4.20" shape="2436.94,1676.52 2438.06,1675.87 2438.87,1675.87 2439.36,1676.51 2439.52,1677.79"/>
    </edge>
    <edge id=":carlow_0" function="internal">
        <lane id=":carlow_0_0" index="0" speed="4.41" length="6.33" shape="1882.30,1156.90 1882.33,1154.76 1881.86,1153.85 1880.90,1154.18 1879.44,1155.76"/>
    </edge>
    <edge id=":carrick_0" function="internal">
        <lane id=":carrick_0_0" index="0" speed="10.00" length="9.90" shape="1121.99,2584.13 1123.58,2581.67 1124.54,2579.90 1125.27,2578.02 1126.18,2575.23"/>
    </edge>
    <edge id=":carrick_1" function="internal">
        <lane id=":carrick_1_0" index="0" speed="7.01" length="13.78" shape="1121.99,2584.13 1124.15,2582.11 1126.63,2582.05 1129.44,2583.94 1132.58,2587.78"/>
    </edge>
    <edge id=":carrick_2" function="internal">
        <lane id=":carrick_2_0" index="0" speed="6.26" length="13.38" shape="1121.99,2584.13 1124.27,2581.70 1126.21,2581.74 1127.82,2584.24 1129.10,2589.20"/>
    </edge>
    <edge id=":carrick_3" function="internal">
        <lane id=":carrick_3_0" index="0" speed="3.65" length="4.67" shape="1121.99,2584.13 1123.32,2583.58 1124.21,2583.69 1124.65,2584.46 1124.65,2585.91"/>
    </edge>
    <edge id=":castlebar_0" function="internal">
        <lane id=":castlebar_0_0" index="0" speed="7.95" length="23.37" shape="301.96,2452.02 298.79,2448.90 301.43,2445.54 307.56,2442.34 314.84,2439.71"/>
    </edge>
    <edge id=":castlebar_1" function="internal">
        <lane id=":castlebar_1_0" index="0" speed="7.15" length="18.75" shape="303.16,2448.93 301.05,2446.75 303.53,2444.27 308.74,2441.82 314.84,2439.71"/>
    </edge>
    <edge id=":castlebar_2" function="internal">
        <lane id=":castlebar_2_0" index="0" speed="5.53" length="11.24" shape="312.10,2435.35 309.71,2438.37 309.37,2440.11 311.08,2440.55 314.84,2439.71"/>
    </edge>
    <edge id=":cavan_0" function="internal">
        <lane id=":cavan_0_0" index="0" speed="9.47" length="17.41" shape="1686.44,2634.06 1685.46,2631.59 1686.05,2628.19 1688.21,2623.85 1691.94,2618.58"/>
    </edge>
    <edge id=":cavan_1" function="internal">
        <lane id=":cavan_1_0" index="0" speed="5.46" length="10.22" shape="1686.61,2616.73 1686.94,2620.09 1687.94,2621.51 1689.60,2621.01 1691.94,2618.58"/>
    </edge>
    <edge id=":cavan_2" function="internal">
        <lane id=":cavan_2_0" index="0" speed="7.59" length="13.60" shape="1681.00,2623.99 1683.12,2625.01 1685.65,2624.46 1688.59,2622.31 1691.94,2618.58"/>
    </edge>
    <edge id=":clonmel_0" function="internal">
        <lane id=":clonmel_0_0" index="0" speed="7.34" length="15.38" shape="1386.42,626.59 1384.97,620.72 1383.16,617.03 1381.01,615.52 1378.51,616.19"/>
    </edge>
    <edge id=":clonmel_1" function="internal">
        <lane id=":clonmel_1_0" index="0" speed="6.22" length="14.95" shape="1386.42,626.59 1386.99,622.68 1389.60,620.28 1393.11,619.90 1396.39,622.07"/>
    </edge>
    <edge id=":clonmel_2" function="internal">
        <lane id=":clonmel_2_0" index="0" speed="4.99" length="9.92" shape="1386.42,626.59 1387.10,623.60 1388.39,622.20 1390.28,622.39 1392.77,624.17"/>
    </edge>
    <edge id=":clonmel_3" function="internal">
        <lane id=":clonmel_3_0" index="0" speed="9.32" length="42.36" shape="1394.61,623.52 1405.12,635.41 1408.91,639.13 1406.01,634.68 1396.39,622.07"/>
    </edge>
    <edge id=":clonmel_4" function="internal">
        <lane id=":clonmel_4_0" index="0" speed="4.26" length="6.43" shape="1394.61,623.52 1392.94,621.77 1392.07,621.29 1392.02,622.09 1392.77,624.17"/>
    </edge>
    <edge id=":clonmel_5" function="internal">
        <lane id=":clonmel_5_0" index="0" speed="9.70" length="19.18" shape="1394.61,623.52 1389.89,618.78 1385.63,615.98 1381.84,615.12 1378.51,616.19"/>
    </edge>
    <edge id=":clonmel_6" function="internal">
        <lane id=":clonmel_6_0" index="0" speed="10.00" length="23.95" shape="1377.85,607.75 1382.00,608.92 1386.48,611.69 1391.27,616.07 1396.39,622.07"/>
    </edge>
    <edge id=":clonmel_7" function="internal">
        <lane id=":clonmel_7_0" index="0" speed="10.00" length="23.12" shape="1377.85,607.75 1381.88,609.06 1385.70,612.23 1389.34,617.26 1392.77,624.17"/>
    </edge>
    <edge id=":clonmel_8" function="internal">
        <lane id=":clonmel_8_0" index="0" speed="6.47" length="15.05" shape="1377.85,607.75 1382.34,608.68 1383.94,610.39 1382.67,612.90 1378.51,616.19"/>
    </edge>
    <edge id=":cork_0" function="internal">
        <lane id=":cork_0_0" index="0" speed="5.73" length="12.85" shape="817.43,19.81 816.23,15.42 815.05,13.96 813.88,15.42 812.72,19.81"/>
    </edge>
    <edge id=":cork_1" function="internal">
        <lane id=":cork_1_0" index="0" speed="6.60" length="15.82" shape="820.70,14.96 818.31,11.49 816.19,11.14 814.32,13.92 812.72,19.81"/>
    </edge>
    <edge id=":cork_2" function="internal">
        <lane id=":cork_2_0" index="0" speed="4.14" length="6.38" shape="811.96,19.66 811.83,22.05 811.92,22.87 812.21,22.12 812.72,19.81"/>
    </edge>
    <edge id=":craigavon_0" function="internal">
        <lane id=":craigavon_0_0" index="0" speed="10.00" length="9.90" shape="2149.70,3163.47 2148.84,3162.32 2147.16,3161.09 2144.68,3159.78 2141.39,3158.39"/>
    </edge>
    <edge id=":craigavon_1" function="internal">
        <lane id=":craigavon_1_0" index="0" speed="10.00" length="10.37" shape="2149.70,3163.47 2148.41,3160.75 2147.19,3158.99 2145.70,3157.40 2143.63,3155.17"/>
    </edge>
    <edge id=":craigavon_2" function="internal">
        <lane id=":craigavon_2_0" index="0" speed="10.00" length="8.37" shape="2149.70,3163.47 2148.86,3161.16 2148.56,3159.48 2148.66,3157.75 2148.99,3155.29"/>
    </edge>
    <edge id=":derry_0" function="internal">
        <lane id=":derry_0_0" index="0" speed="8.75" length="21.44" shape="1620.35,3877.42 1615.55,3879.04 1611.64,3877.82 1608.61,3873.77 1606.47,3866.87"/>
    </edge>
    <edge id=":derry_1" function="internal">
        <lane id=":derry_1_0" index="0" speed="7.86" length="20.18" shape="1620.35,3877.42 1615.53,3879.20 1612.34,3877.99 1610.77,3873.81 1610.83,3866.64"/>
    </edge>
    <edge id=":derry_2" function="internal">
        <lane id=":derry_2_0" index="0" speed="7.34" length="19.84" shape="1616.46,3873.76 1613.55,3877.85 1610.91,3878.06 1608.55,3874.40 1606.47,3866.87"/>
    </edge>
    <edge id=":derry_3" function="internal">
        <lane id=":derry_3_0" index="0" speed="5.60" length="12.31" shape="1616.46,3873.76 1614.55,3875.25 1612.60,3873.77 1611.18,3870.50 1610.83,3866.64"/>
    </edge>
    <edge id=":dublin_0" function="internal">
        <lane id=":dublin_0_0" index="0" speed="3.65" length="4.67" shape="2315.00,1793.33 2314.66,1794.73 2314.05,1795.38 2313.16,1795.28 2312.00,1794.43"/>
    </edge>
    <edge id=":dublin_1" function="internal">
        <lane id=":dublin_1_0" index="0" speed="6.04" length="15.00" shape="2308.16,1796.56 2311.69,1800.67 2313.51,1801.68 2313.61,1799.61 2312.00,1794.43"/>
    </edge>
    <edge id=":dublin_2" function="internal">
        <lane id=":dublin_2_0" index="0" speed="10.00" length="27.89" shape="2309.16,1819.32 2313.37,1816.51 2315.25,1811.42 2314.79,1804.07 2312.00,1794.43"/>
    </edge>
    <edge id=":dublin_3" function="internal">
        <lane id=":dublin_3_0" index="0" speed="10.00" length="30.68" shape="2311.30,1823.39 2314.64,1818.98 2315.87,1812.69 2314.99,1804.50 2312.00,1794.43"/>
    </edge>
    <edge id=":dublin_4" function="internal">
        <lane id=":dublin_4_0" index="0" speed="10.00" length="36.72" shape="2314.35,1830.91 2315.05,1823.93 2314.55,1812.71 2313.37,1801.47 2312.00,1794.43"/>
    </edge>
    <edge id=":dublin_5" function="internal">
        <lane id=":dublin_5_0" index="0" speed="10.00" length="38.21" shape="2318.46,1832.03 2317.96,1824.72 2316.11,1813.13 2313.82,1801.59 2312.00,1794.43"/>
    </edge>
    <edge id=":dundalk_0" function="internal">
        <lane id=":dundalk_0_0" index="0" speed="10.00" length="13.65" shape="2242.78,2620.70 2244.40,2625.03 2245.29,2628.67 2245.43,2631.62 2244.83,2633.87"/>
    </edge>
    <edge id=":dundalk_1" function="internal">
        <lane id=":dundalk_1_0" index="0" speed="7.93" length="12.59" shape="2238.87,2623.92 2242.32,2626.62 2244.46,2629.18 2245.30,2631.60 2244.83,2633.87"/>
    </edge>
    <edge id=":ennis_0" function="internal">
        <lane id=":ennis_0_0" index="0" speed="6.52" length="8.40" shape="486.33,1203.75 484.62,1205.25 483.74,1206.96 483.68,1208.89 484.45,1211.03"/>
    </edge>
    <edge id=":ennis_1" function="internal">
        <lane id=":ennis_1_0" index="0" speed="6.03" length="13.85" shape="478.30,1211.78 478.76,1207.21 479.94,1205.56 481.84,1206.83 484.45,1211.03"/>
    </edge>
    <edge id=":enniskillen_0" function="internal">
        <lane id=":enniskillen_0_0" index="0" speed="10.00" length="30.61" shape="1442.88,3035.49 1457.11,3062.60"/>
    </edge>
    <edge id=":enniskillen_1" function="internal">
        <lane id=":enniskillen_1_0" index="0" speed="10.00" length="30.60" shape="1440.00,3037.23 1443.54,3042.31 1448.75,3049.80 1453.86,3057.34 1457.11,3062.60"/>
    </edge>
    <edge id=":galway_0" function="internal">
        <lane id=":galway_0_0" index="0" speed="5.96" length="10.83" shape="476.90,1738.97 473.60,1740.74 471.27,1740.98 469.89,1739.68 469.47,1736.86"/>
    </edge>
    <edge id=":galway_1" function="internal">
        <lane id=":galway_1_0" index="0" speed="4.02" length="5.78" shape="473.43,1736.96 472.40,1738.42 471.40,1738.89 470.42,1738.37 469.47,1736.86"/>
    </edge>
    <edge id=":kilkenny_0" function="internal">
        <lane id=":kilkenny_0_0" index="0" speed="10.00" length="17.03" shape="1688.66,953.01 1688.08,957.00 1688.02,961.44 1688.26,965.91 1688.58,969.98"/>
    </edge>
    <edge id=":kilkenny_1" function="internal">
        <lane id=":kilkenny_1_0" index="0" speed="10.00" length="18.82" shape="1688.66,953.01 1686.92,956.91 1684.03,961.05 1680.73,964.96 1677.76,968.20"/>
    </edge>
    <edge id=":kilkenny_2" function="internal">
        <lane id=":kilkenny_2_0" index="0" speed="7.47" length="17.95" shape="1688.66,953.01 1687.12,955.39 1684.36,955.18 1680.39,952.38 1675.19,946.98"/>
    </edge>
    <edge id=":kilkenny_3" function="internal">
        <lane id=":kilkenny_3_0" index="0" speed="5.48" length="10.71" shape="1672.32,951.52 1675.87,952.18 1677.53,951.64 1677.30,949.91 1675.19,946.98"/>
    </edge>
    <edge id=":kilkenny_4" function="internal">
        <lane id=":kilkenny_4_0" index="0" speed="10.00" length="26.38" shape="1672.32,951.52 1679.03,954.26 1683.98,958.25 1687.16,963.49 1688.58,969.98"/>
    </edge>
    <edge id=":kilkenny_5" function="internal">
        <lane id=":kilkenny_5_0" index="0" speed="8.74" length="23.39" shape="1672.32,951.52 1678.90,954.30 1682.00,958.01 1681.62,962.64 1677.76,968.20"/>
    </edge>
    <edge id=":kilkenny_6" function="internal">
        <lane id=":kilkenny_6_0" index="0" speed="5.43" length="10.25" shape="1682.81,970.25 1682.88,966.91 1682.06,965.45 1680.35,965.88 1677.76,968.20"/>
    </edge>
    <edge id=":kilkenny_7" function="internal">
        <lane id=":kilkenny_7_0" index="0" speed="10.00" length="25.21" shape="1682.81,970.25 1682.90,964.02 1681.66,958.07 1679.09,952.39 1675.19,946.98"/>
    </edge>
    <edge id=":kilkenny_8" function="internal">
        <lane id=":kilkenny_8_0" index="0" speed="4.66" length="8.44" shape="1682.81,970.25 1684.15,968.02 1685.55,967.23 1687.03,967.88 1688.58,969.98"/>
    </edge>
    <edge id=":letterkenny_0" function="internal">
        <lane id=":letterkenny_0_0" index="0" speed="3.69" length="4.60" shape="1347.58,3805.57 1347.15,3806.60 1346.11,3806.97 1344.98,3806.67 1344.31,3805.67"/>
    </edge>
    <edge id=":letterkenny_1" function="internal">
        <lane id=":letterkenny_1_0" index="0" speed="10.00" length="58.16" shape="1347.58,3805.57 1346.32,3783.83 1345.37,3776.61 1344.73,3783.89 1344.40,3805.68"/>
    </edge>
    <edge id=":letterkenny_2" function="internal">
        <lane id=":letterkenny_2_0" index="0" speed="6.57" length="19.09" shape="1347.58,3805.57 1347.04,3798.57 1346.34,3796.26 1345.47,3798.62 1344.43,3805.68"/>
    </edge>
    <edge id=":letterkenny_3" function="internal">
        <lane id=":letterkenny_3_0" index="0" speed="6.32" length="17.44" shape="1347.55,3805.57 1346.21,3799.22 1345.24,3797.12 1344.64,3799.27 1344.40,3805.68"/>
    </edge>
    <edge id=":letterkenny_4" function="internal">
        <lane id=":letterkenny_4_0" index="0" speed="5.28" length="11.04" shape="1347.55,3805.57 1346.65,3801.68 1345.83,3800.40 1345.09,3801.73 1344.43,3805.68"/>
    </edge>
    <edge id=":letterkenny_5" function="internal">
        <lane id=":letterkenny_5_0" index="0" speed="3.67" length="4.73" shape="1347.55,3805.57 1346.78,3806.81 1345.98,3807.24 1345.16,3806.86 1344.31,3805.67"/>
    </edge>
    <edge id=":limerick_0" function="internal">
        <lane id=":limerick_0_0" index="0" speed="10.00" length="5.82" shape="742.27,955.17 741.97,953.70 742.55,952.64 743.40,951.53 743.92,949.89"/>
    </edge>
    <edge id=":limerick_1" function="internal">
        <lane id=":limerick_1_0" index="0" speed="3.60" length="4.35" shape="742.27,955.17 742.33,953.83 742.77,953.13 743.60,953.06 744.82,953.62"/>
    </edge>
    <edge id=":longford_0" function="internal">
        <lane id=":longford_0_0" index="0" speed="6.64" length="6.70" shape="1358.28,2312.07 1357.84,2313.77 1357.92,2315.36 1358.52,2316.83 1359.63,2318.20"/>
    </edge>
    <edge id=":longford_1" function="internal">
        <lane id=":longford_1_0" index="0" speed="6.67" length="15.03" shape="1353.33,2326.89 1353.76,2320.87 1354.95,2317.42 1356.91,2316.52 1359.63,2318.20"/>
    </edge>
    <edge id=":monaghan_0" function="internal">
        <lane id=":monaghan_0_0" index="0" speed="2.80" length="1.67" shape="1840.56,2944.29 1840.47,2944.90 1840.49,2945.12 1840.64,2944.95 1840.90,2944.40"/>
    </edge>
    <edge id=":monaghan_1" function="internal">
        <lane id=":monaghan_1_0" index="0" speed="3.55" length="3.90" shape="1840.56,2944.29 1840.36,2945.70 1840.44,2946.22 1840.81,2945.85 1841.47,2944.58"/>
    </edge>
    <edge id=":monaghan_2" function="internal">
        <lane id=":monaghan_2_0" index="0" speed="7.59" length="24.21" shape="1840.56,2944.29 1838.18,2947.73 1834.60,2944.93 1830.99,2938.43 1828.55,2930.77"/>
    </edge>
    <edge id=":monaghan_3" function="internal">
        <lane id=":monaghan_3_0" index="0" speed="7.24" length="20.96" shape="1835.33,2929.64 1836.34,2939.44 1837.61,2945.17 1839.13,2946.82 1840.90,2944.40"/>
    </edge>
    <edge id=":monaghan_4" function="internal">
        <lane id=":monaghan_4_0" index="0" speed="7.39" length="21.62" shape="1835.33,2929.64 1836.39,2939.64 1837.77,2945.46 1839.46,2947.11 1841.47,2944.58"/>
    </edge>
    <edge id=":monaghan_5" function="internal">
        <lane id=":monaghan_5_0" index="0" speed="4.87" length="9.67" shape="1835.33,2929.64 1834.50,2931.95 1832.33,2933.04 1829.96,2932.71 1828.55,2930.77"/>
    </edge>
    <edge id=":monaghan_6" function="internal">
        <lane id=":monaghan_6_0" index="0" speed="7.72" length="22.87" shape="1831.68,2930.14 1834.09,2940.20 1836.42,2945.94 1838.69,2947.33 1840.90,2944.40"/>
    </edge>
    <edge id=":monaghan_7" function="internal">
        <lane id=":monaghan_7_0" index="0" speed="7.87" length="23.45" shape="1831.68,2930.14 1834.15,2940.33 1836.60,2946.14 1839.04,2947.56 1841.47,2944.58"/>
    </edge>
    <edge id=":monaghan_8" function="internal">
        <lane id=":monaghan_8_0" index="0" speed="3.65" length="4.67" shape="1831.68,2930.14 1831.13,2931.47 1830.43,2932.02 1829.56,2931.79 1828.55,2930.77"/>
    </edge>
    <edge id=":naas_0" function="internal">
        <lane id=":naas_0_0" index="0" speed="8.89" length="12.46" shape="2083.51,1616.48 2085.27,1618.23 2086.30,1620.73 2086.59,1623.98 2086.14,1627.97"/>
    </edge>
    <edge id=":naas_1" function="internal">
        <lane id=":naas_1_0" index="0" speed="5.95" length="10.79" shape="2083.51,1616.48 2085.58,1618.38 2085.84,1620.23 2084.32,1622.03 2080.99,1623.79"/>
    </edge>
    <edge id=":navan_0" function="internal">
        <lane id=":navan_0_0" index="0" speed="3.92" length="2.34" shape="2084.85,2204.02 2084.67,2203.42 2084.34,2202.99 2083.86,2202.74 2083.23,2202.67"/>
    </edge>
    <edge id=":omagh_0" function="internal">
        <lane id=":omagh_0_0" index="0" speed="6.00" length="9.08" shape="1616.52,3351.36 1615.72,3353.83 1616.00,3355.75 1617.37,3357.14 1619.83,3357.98"/>
    </edge>
    <edge id=":omagh_1" function="internal">
        <lane id=":omagh_1_0" index="0" speed="7.21" length="18.83" shape="1616.52,3351.36 1613.39,3354.34 1609.76,3353.40 1606.41,3349.71 1604.15,3344.39"/>
    </edge>
    <edge id=":omagh_2" function="internal">
        <lane id=":omagh_2_0" index="0" speed="6.27" length="15.32" shape="1616.52,3351.36 1614.06,3353.43 1611.34,3352.00 1609.13,3348.33 1608.19,3343.68"/>
    </edge>
    <edge id=":omagh_3" function="internal">
        <lane id=":omagh_3_0" index="0" speed="3.51" length="3.82" shape="1603.35,3344.70 1604.04,3345.92 1604.41,3346.27 1604.44,3345.76 1604.15,3344.39"/>
    </edge>
    <edge id=":omagh_4" function="internal">
        <lane id=":omagh_4_0" index="0" speed="5.59" length="11.77" shape="1603.35,3344.70 1605.52,3348.23 1607.04,3349.23 1607.93,3347.72 1608.19,3343.68"/>
    </edge>
    <edge id=":omagh_5" function="internal">
        <lane id=":omagh_5_0" index="0" speed="10.00" length="23.51" shape="1603.35,3344.70 1607.24,3351.30 1611.18,3356.24 1615.17,3359.51 1619.23,3361.12"/>
    </edge>
    <edge id=":portlaoise_0" function="internal">
        <lane id=":portlaoise_0_0" index="0" speed="5.76" length="13.05" shape="1692.17,1380.45 1690.17,1376.28 1688.74,1375.04 1687.87,1376.73 1687.58,1381.35"/>
    </edge>
    <edge id=":portlaoise_1" function="internal">
        <lane id=":portlaoise_1_0" index="0" speed="7.47" length="17.34" shape="1692.17,1380.45 1689.09,1373.64 1686.42,1369.40 1684.17,1367.74 1682.33,1368.65"/>
    </edge>
    <edge id=":portlaoise_2" function="internal">
        <lane id=":portlaoise_2_0" index="0" speed="8.40" length="24.90" shape="1692.17,1380.45 1691.20,1373.69 1693.64,1368.60 1698.65,1366.05 1705.39,1366.93"/>
    </edge>
    <edge id=":portlaoise_3" function="internal">
        <lane id=":portlaoise_3_0" index="0" speed="7.34" length="20.41" shape="1692.17,1380.45 1691.63,1374.96 1694.04,1370.82 1698.36,1369.00 1703.57,1370.47"/>
    </edge>
    <edge id=":portlaoise_4" function="internal">
        <lane id=":portlaoise_4_0" index="0" speed="3.65" length="4.67" shape="1692.17,1380.45 1692.46,1379.04 1693.06,1378.37 1693.95,1378.44 1695.14,1379.25"/>
    </edge>
    <edge id=":roscommon_0" function="internal">
        <lane id=":roscommon_0_0" index="0" speed="5.69" length="12.53" shape="1048.00,2245.11 1046.89,2240.84 1045.72,2239.40 1044.50,2240.79 1043.22,2245.01"/>
    </edge>
    <edge id=":roscommon_1" function="internal">
        <lane id=":roscommon_1_0" index="0" speed="10.00" length="21.83" shape="1054.09,2227.41 1050.86,2228.57 1047.97,2231.89 1045.42,2237.37 1043.22,2245.01"/>
    </edge>
    <edge id=":roscommon_2" function="internal">
        <lane id=":roscommon_2_0" index="0" speed="10.00" length="24.70" shape="1051.17,2221.70 1048.83,2226.36 1046.50,2233.04 1044.52,2239.88 1043.22,2245.01"/>
    </edge>
    <edge id=":roscommon_3" function="internal">
        <lane id=":roscommon_3_0" index="0" speed="10.00" length="24.66" shape="1051.29,2221.80 1048.89,2226.41 1046.53,2233.06 1044.52,2239.88 1043.22,2245.01"/>
    </edge>
    <edge id=":sligo_0" function="internal">
        <lane id=":sligo_0_0" index="0" speed="9.19" length="37.67" shape="903.32,2917.90 896.33,2929.57 895.32,2934.62 900.30,2933.04 911.27,2924.84"/>
    </edge>
    <edge id=":sligo_1" function="internal">
        <lane id=":sligo_1_0" index="0" speed="9.36" length="38.81" shape="903.32,2917.90 896.22,2929.86 895.30,2935.12 900.59,2933.68 912.08,2925.55"/>
    </edge>
    <edge id=":sligo_2" function="internal">
        <lane id=":sligo_2_0" index="0" speed="4.78" length="9.42" shape="903.32,2917.90 901.35,2919.04 899.17,2918.30 897.71,2916.38 897.92,2913.97"/>
    </edge>
    <edge id=":sligo_3" function="internal">